Info: SIMULATION PARAMETERS:
Info: TIMESTEP               2
Info: NUMBER OF STEPS        80000
Info: STEPS PER CYCLE        20
Info: PERIODIC CELL BASIS 1  993.12 0 0
Info: PERIODIC CELL BASIS 2  0 993.12 0
Info: PERIODIC CELL BASIS 3  0 0 993.12
Info: PERIODIC CELL CENTER   0 0 0
Info: WRAPPING ALL CLUSTERS AROUND PERIODIC BOUNDARIES ON OUTPUT.
Info: FIRST LDB TIMESTEP     100
Info: HYBRIDLB GROUP SIZE     480
Info: LAST LDB TIMESTEP     -1
Info: HOM BACKGROUND SCALING 1
Info: PME BACKGROUND SCALING 1
Info: REMOVING LOAD FROM NODE 0
Info: REMOVING LOAD FROM NODE 1
Info: REMOVING PATCHES FROM PROCESSOR 0
Info: REMOVING PATCHES FROM PROCESSOR 1
Info: MAX SELF PARTITIONS    1
Info: MAX PAIR PARTITIONS    1
Info: SELF PARTITION ATOMS   154
Info: SELF2 PARTITION ATOMS   154
Info: PAIR PARTITION ATOMS   318
Info: PAIR2 PARTITION ATOMS  637
Info: MIN ATOMS PER PATCH    40
Info: VELOCITY FILE          chromat100-in.vel
Info: CENTER OF MASS MOVING INITIALLY? NO
Info: DIELECTRIC             1
Info: EXCLUDE                SCALED ONE-FOUR
Info: 1-4 ELECTROSTATICS SCALED BY 1
Info: MODIFIED 1-4 VDW PARAMETERS WILL BE USED
Info: NO DCD TRAJECTORY OUTPUT
Info: NO EXTENDED SYSTEM TRAJECTORY OUTPUT
Info: NO VELOCITY DCD OUTPUT
Info: NO FORCE DCD OUTPUT
Info: OUTPUT FILENAME        ./chromat100-out
Info: BINARY OUTPUT FILES WILL BE USED
Info: RESTART FILENAME       ./chromat100-out.restart
Info: RESTART FREQUENCY      90000
Info: BINARY RESTART FILES WILL BE USED
Info: SWITCHING ACTIVE
Info: SWITCHING ON           10
Info: SWITCHING OFF          12
Info: PAIRLIST DISTANCE      13.5
Info: PAIRLIST SHRINK RATE   0.01
Info: PAIRLIST GROW RATE     0.01
Info: PAIRLIST TRIGGER       0.3
Info: PAIRLISTS PER CYCLE    2
Info: REQUIRING 100 PROCESSORS FOR PAIRLISTS
Info: PAIRLISTS ENABLED
Info: MARGIN                 0.48
Info: HYDROGEN GROUP CUTOFF  2.5
Info: PATCH DIMENSION        16.48
Info: ENERGY OUTPUT STEPS    200
Info: CROSSTERM ENERGY INCLUDED IN DIHEDRAL
Info: TIMING OUTPUT STEPS    200
Info: LANGEVIN DYNAMICS ACTIVE
Info: LANGEVIN TEMPERATURE   298
Info: LANGEVIN USING BBK INTEGRATOR
Info: LANGEVIN DAMPING COEFFICIENT IS 5 INVERSE PS
Info: LANGEVIN DYNAMICS NOT APPLIED TO HYDROGENS
Info: LANGEVIN PISTON PRESSURE CONTROL ACTIVE
Info:        TARGET PRESSURE IS 1.01325 BAR
Info:     OSCILLATION PERIOD IS 100 FS
Info:             DECAY TIME IS 50 FS
Info:     PISTON TEMPERATURE IS 298 K
Info:       PRESSURE CONTROL IS GROUP-BASED
Info:    INITIAL STRAIN RATE IS -1.014e-07 -1.014e-07 -1.014e-07
Info:       CELL FLUCTUATION IS ISOTROPIC
Info: PARTICLE MESH EWALD (PME) ACTIVE
Info: PME TOLERANCE               1e-06
Info: PME EWALD COEFFICIENT       0.257952
Info: PME INTERPOLATION ORDER     8
Info: PME GRID DIMENSIONS         512 512 512
Info: PME MAXIMUM GRID SPACING    2.1
Info: FULL ELECTROSTATIC EVALUATION FREQUENCY      4
Info: USING VERLET I (r-RESPA) MTS SCHEME.
Info: C1 SPLITTING OF LONG RANGE ELECTROSTATICS
Info: PLACING ATOMS IN PATCHES BY HYDROGEN GROUPS
Info: RIGID BONDS TO HYDROGEN : ALL
Info:         ERROR TOLERANCE : 1e-08
Info:          MAX ITERATIONS : 100
Info: RIGID WATER USING SETTLE ALGORITHM
Info: RANDOM NUMBER SEED     3141
Info: USE HYDROGEN BONDS?    NO
Info: STRUCTURE FILE         final.js.inter
Info: PARAMETER file: CHARMM format!
Info: PARAMETERS             parameters/all27_prot_lipid_cmap.par
Info: PARAMETERS             parameters/all27_prot_lipid_cmap-wcofactors.par
Info: PARAMETERS             parameters/cofactors.par
Info: PARAMETERS             parameters/par_all27_prot_na.inp
Info: PARAMETERS             parameters/par_all27_prot_na.prm
Info: PARAMETERS             parameters/par_all36_lipid.prm
Info: PARAMETERS             parameters/par_fes.inp
Info: PARAMETERS             parameters/par_heme.inp
Info: PARAMETERS             parameters/rhodopin-glucoside.par
Info: PARAMETERS             parameters/tail-endcap.par
Info: PARAMETERS             parameters/tail-internal-unit.par
Info: USING ARITHMETIC MEAN TO COMBINE L-J SIGMA PARAMETERS
Info: BINARY COORDINATES     chromat100-in.coor
Info: SUMMARY OF PARAMETERS:
Info: 1261 BONDS
Info: 3182 ANGLES
Info: 4047 DIHEDRAL
Info: 507 IMPROPER
Info: 18 CROSSTERM
Info: 692 VDW
Info: 0 VDW_PAIRS
Info: 0 NBTHOLE_PAIRS
Info: NONBONDED TABLE R-SQUARED SPACING: 0.0625
Info: NONBONDED TABLE SIZE: 769 POINTS
Info: Running with 32 input processors.
Info: Running with 32 output processors (32 of them will output simultaneously).
Info: INPUT PROC LOCATIONS: 768 3840 4608 6912 10752 13056 16896 19200 19968 23040 ... 74496
Info: OUTPUT PROC LOCATIONS: 1536 3072 6144 7680 9216 12288 13824 15360 18432 21504 ... 75264
Info: LOADED 124565308 TOTAL EXCLUSIONS
Info: REMOVING COM VELOCITY -0.000499722 0.000489814 0.00180488
Info: STRUCTURE SUMMARY:
Info: 100243442 ATOMS
Info: 68673487 BONDS
Info: 41723184 ANGLES
Info: 14480756 DIHEDRALS
Info: 660632 IMPROPERS
Info: 161938 CROSSTERMS
Info: 0 EXCLUSIONS
Info: 66181848 RIGID BONDS
Info: 234548478 DEGREES OF FREEDOM
Info: 34061594 HYDROGEN GROUPS
Info: 4 ATOMS IN LARGEST HYDROGEN GROUP
Info: 34061594 MIGRATION GROUPS
Info: 4 ATOMS IN LARGEST MIGRATION GROUP
Info: TOTAL MASS = 6.04438e+08 amu
Info: TOTAL CHARGE = 521.083 e
Info: MASS DENSITY = 1.02472 g/cm^3
Info: ATOM DENSITY = 0.102341 atoms/A^3
Info: PME Z PENCIL LOCATIONS: 1 79 127 175 223 271 319 367 415 463 ...
Info: PME Y PENCIL LOCATIONS: 31 95 143 191 239 287 335 383 479 527 ...
Info: PME X PENCIL LOCATIONS: 47 63 111 159 255 303 351 431 447 495 ...
ETITLE: TS BOND ANGLE DIHED IMPRP ELECT VDW BOUNDARY MISC KINETIC TOTAL TEMP POTENTIAL TOTAL3 TEMPAVG PRESSURE GPRESSURE VOLUME PRESSAVG GPRESSAVG
ENERGY: 0 862368.3646 20606396.3109 1749214.6220 152022.8999 -370786736.5539 34496074.1385 0.0000 0.0000 69208716.2169 -243711944.0011 296.9741 -312920660.2180 -243168769.6338 296.9741 -107.3632 7.8325 979501677.5393 -107.3632 7.8325
ENERGY: 16000 876556.7389 21019616.9410 1746624.5214 152928.9645 -370345555.3778 34368876.8375 0.0000 0.0000 69097231.4015 -243083719.9731 296.4957 -312180951.3746 -242524666.4893 296.5240 -118.7952 -4.2323 979682155.8966 0.7942 0.7896
ENERGY: 32000 877800.2918 21005448.6883 1743610.0062 153412.9718 -370292698.9689 34308645.3441 0.0000 0.0000 69075957.6405 -243127824.0261 296.4044 -312203781.6666 -242568063.0496 296.4940 -143.1503 -28.0967 979669985.9875 0.8539 0.8590
ENERGY: 48000 870747.3462 21014788.2918 1741100.3517 153133.1069 -370505729.3421 34472911.1746 0.0000 0.0000 69091025.6693 -243162023.4017 296.4691 -312253049.0709 -242602213.0771 296.4938 -60.0907 54.6503 978913558.3393 0.4426 0.4499
ENERGY: 64000 877697.6542 20998435.2100 1738230.7739 152854.8324 -370275813.0072 34258391.3009 0.0000 0.0000 69079206.3505 -243170996.8852 296.4184 -312250203.2357 -242611455.6331 296.4917 -153.1742 -38.2356 979189149.7822 0.9797 0.9905
ENERGY: 80000 873939.7638 21005550.8035 1738503.4891 153241.6074 -370358982.7245 34334717.3292 0.0000 0.0000 69086023.2132 -243167006.5182 296.4476 -312253029.7314 -242606859.1919 296.5325 -119.1338 -4.2881 978813775.4878 1.0006 0.9944
