Info: SIMULATION PARAMETERS:
Info: TIMESTEP               2
Info: NUMBER OF STEPS        80000
Info: STEPS PER CYCLE        20
Info: PERIODIC CELL BASIS 1  993.12 0 0
Info: PERIODIC CELL BASIS 2  0 993.12 0
Info: PERIODIC CELL BASIS 3  0 0 993.12
Info: PERIODIC CELL CENTER   0 0 0
Info: WRAPPING ALL CLUSTERS AROUND PERIODIC BOUNDARIES ON OUTPUT.
Info: FIRST LDB TIMESTEP     100
Info: HYBRIDLB GROUP SIZE     480
Info: LAST LDB TIMESTEP     -1
Info: HOM BACKGROUND SCALING 1
Info: PME BACKGROUND SCALING 1
Info: REMOVING LOAD FROM NODE 0
Info: REMOVING LOAD FROM NODE 1
Info: REMOVING PATCHES FROM PROCESSOR 0
Info: REMOVING PATCHES FROM PROCESSOR 1
Info: MAX SELF PARTITIONS    1
Info: MAX PAIR PARTITIONS    1
Info: SELF PARTITION ATOMS   154
Info: SELF2 PARTITION ATOMS   154
Info: PAIR PARTITION ATOMS   318
Info: PAIR2 PARTITION ATOMS  637
Info: MIN ATOMS PER PATCH    40
Info: VELOCITY FILE          chromat100-in.vel
Info: CENTER OF MASS MOVING INITIALLY? NO
Info: DIELECTRIC             1
Info: EXCLUDE                SCALED ONE-FOUR
Info: 1-4 ELECTROSTATICS SCALED BY 1
Info: MODIFIED 1-4 VDW PARAMETERS WILL BE USED
Info: NO DCD TRAJECTORY OUTPUT
Info: NO EXTENDED SYSTEM TRAJECTORY OUTPUT
Info: NO VELOCITY DCD OUTPUT
Info: NO FORCE DCD OUTPUT
Info: OUTPUT FILENAME        ./chromat100-out
Info: BINARY OUTPUT FILES WILL BE USED
Info: RESTART FILENAME       ./chromat100-out.restart
Info: RESTART FREQUENCY      90000
Info: BINARY RESTART FILES WILL BE USED
Info: SWITCHING ACTIVE
Info: SWITCHING ON           10
Info: SWITCHING OFF          12
Info: PAIRLIST DISTANCE      13.5
Info: PAIRLIST SHRINK RATE   0.01
Info: PAIRLIST GROW RATE     0.01
Info: PAIRLIST TRIGGER       0.3
Info: PAIRLISTS PER CYCLE    2
Info: REQUIRING 100 PROCESSORS FOR PAIRLISTS
Info: PAIRLISTS ENABLED
Info: MARGIN                 0.48
Info: HYDROGEN GROUP CUTOFF  2.5
Info: PATCH DIMENSION        16.48
Info: ENERGY OUTPUT STEPS    200
Info: CROSSTERM ENERGY INCLUDED IN DIHEDRAL
Info: TIMING OUTPUT STEPS    200
Info: LANGEVIN DYNAMICS ACTIVE
Info: LANGEVIN TEMPERATURE   298
Info: LANGEVIN USING BBK INTEGRATOR
Info: LANGEVIN DAMPING COEFFICIENT IS 5 INVERSE PS
Info: LANGEVIN DYNAMICS NOT APPLIED TO HYDROGENS
Info: LANGEVIN PISTON PRESSURE CONTROL ACTIVE
Info:        TARGET PRESSURE IS 1.01325 BAR
Info:     OSCILLATION PERIOD IS 100 FS
Info:             DECAY TIME IS 50 FS
Info:     PISTON TEMPERATURE IS 298 K
Info:       PRESSURE CONTROL IS GROUP-BASED
Info:    INITIAL STRAIN RATE IS -1.014e-07 -1.014e-07 -1.014e-07
Info:       CELL FLUCTUATION IS ISOTROPIC
Info: PARTICLE MESH EWALD (PME) ACTIVE
Info: PME TOLERANCE               1e-06
Info: PME EWALD COEFFICIENT       0.257952
Info: PME INTERPOLATION ORDER     8
Info: PME GRID DIMENSIONS         512 512 512
Info: PME MAXIMUM GRID SPACING    2.1
Info: FULL ELECTROSTATIC EVALUATION FREQUENCY      4
Info: USING VERLET I (r-RESPA) MTS SCHEME.
Info: C1 SPLITTING OF LONG RANGE ELECTROSTATICS
Info: PLACING ATOMS IN PATCHES BY HYDROGEN GROUPS
Info: RIGID BONDS TO HYDROGEN : ALL
Info:         ERROR TOLERANCE : 1e-08
Info:          MAX ITERATIONS : 100
Info: RIGID WATER USING SETTLE ALGORITHM
Info: RANDOM NUMBER SEED     3141
Info: USE HYDROGEN BONDS?    NO
Info: STRUCTURE FILE         final.js.inter
Info: PARAMETER file: CHARMM format!
Info: PARAMETERS             parameters/all27_prot_lipid_cmap.par
Info: PARAMETERS             parameters/all27_prot_lipid_cmap-wcofactors.par
Info: PARAMETERS             parameters/cofactors.par
Info: PARAMETERS             parameters/par_all27_prot_na.inp
Info: PARAMETERS             parameters/par_all27_prot_na.prm
Info: PARAMETERS             parameters/par_all36_lipid.prm
Info: PARAMETERS             parameters/par_fes.inp
Info: PARAMETERS             parameters/par_heme.inp
Info: PARAMETERS             parameters/rhodopin-glucoside.par
Info: PARAMETERS             parameters/tail-endcap.par
Info: PARAMETERS             parameters/tail-internal-unit.par
Info: USING ARITHMETIC MEAN TO COMBINE L-J SIGMA PARAMETERS
Info: BINARY COORDINATES     chromat100-in.coor
Info: SUMMARY OF PARAMETERS:
Info: 1261 BONDS
Info: 3182 ANGLES
Info: 4047 DIHEDRAL
Info: 507 IMPROPER
Info: 18 CROSSTERM
Info: 692 VDW
Info: 0 VDW_PAIRS
Info: 0 NBTHOLE_PAIRS
Info: NONBONDED TABLE R-SQUARED SPACING: 0.0625
Info: NONBONDED TABLE SIZE: 769 POINTS
Info: Running with 32 input processors.
Info: Running with 32 output processors (32 of them will output simultaneously).
Info: INPUT PROC LOCATIONS: 768 3840 4608 6912 10752 13056 16896 19200 19968 23040 ... 74496
Info: OUTPUT PROC LOCATIONS: 1536 3072 6144 7680 9216 12288 13824 15360 18432 21504 ... 75264
Info: LOADED 124565308 TOTAL EXCLUSIONS
Info: REMOVING COM VELOCITY -0.000499722 0.000489814 0.00180488
Info: STRUCTURE SUMMARY:
Info: 100243442 ATOMS
Info: 68673487 BONDS
Info: 41723184 ANGLES
Info: 14480756 DIHEDRALS
Info: 660632 IMPROPERS
Info: 161938 CROSSTERMS
Info: 0 EXCLUSIONS
Info: 66181848 RIGID BONDS
Info: 234548478 DEGREES OF FREEDOM
Info: 34061594 HYDROGEN GROUPS
Info: 4 ATOMS IN LARGEST HYDROGEN GROUP
Info: 34061594 MIGRATION GROUPS
Info: 4 ATOMS IN LARGEST MIGRATION GROUP
Info: TOTAL MASS = 6.04438e+08 amu
Info: TOTAL CHARGE = 521.083 e
Info: MASS DENSITY = 1.02472 g/cm^3
Info: ATOM DENSITY = 0.102341 atoms/A^3
Info: PME Z PENCIL LOCATIONS: 1 79 127 175 223 271 319 367 415 463 ...
Info: PME Y PENCIL LOCATIONS: 31 95 143 191 239 287 335 383 479 527 ...
Info: PME X PENCIL LOCATIONS: 47 63 111 159 255 303 351 431 447 495 ...
ETITLE: TS BOND ANGLE DIHED IMPRP ELECT VDW BOUNDARY MISC KINETIC TOTAL TEMP POTENTIAL TOTAL3 TEMPAVG PRESSURE GPRESSURE VOLUME PRESSAVG GPRESSAVG
ENERGY: 0 862368.3646 20606396.3109 1749214.6220 152022.8999 -370786736.5534 34496074.1385 0.0000 0.0000 69208716.2169 -243711944.0005 296.9741 -312920660.2174 -243168769.6333 296.9741 -107.3632 7.8325 979501677.5393 -107.3632 7.8325
ENERGY: 16000 875304.7627 21012997.9743 1746765.2355 153135.0743 -370326398.4146 34341842.6775 0.0000 0.0000 69094441.8029 -243101910.8874 296.4837 -312196352.6903 -242542930.1797 296.5141 -133.1201 -18.2841 979888688.3299 0.9155 0.9230
ENERGY: 32000 873498.3260 21014055.5525 1745015.8510 153262.7547 -370388996.6418 34396911.7499 0.0000 0.0000 69100070.1217 -243106182.2860 296.5079 -312206252.4077 -242546237.1236 296.5260 -98.5516 16.2811 979441026.3619 0.6057 0.6149
ENERGY: 48000 872361.2859 21005324.2276 1741591.0214 153549.6107 -370442584.6868 34426036.2221 0.0000 0.0000 69093173.9490 -243150548.3702 296.4783 -312243722.3191 -242590674.5568 296.5102 -82.7443 31.7178 979077082.9220 0.5914 0.6076
ENERGY: 64000 877824.7463 21005699.9090 1738865.3174 153131.8139 -370296521.7692 34275391.0645 0.0000 0.0000 69086163.6244 -243159445.2937 296.4482 -312245608.9181 -242599618.3399 296.5357 -149.8396 -35.1502 979202198.8179 1.3209 1.3222
ENERGY: 80000 873647.8003 21023869.8868 1738690.8047 153423.2273 -370395380.1821 34352552.8805 0.0000 0.0000 69084140.3945 -243169055.1880 296.4395 -312253195.5825 -242610230.1418 296.5307 -109.7197 4.4541 978707374.7132 0.8506 0.8470
