Info: SIMULATION PARAMETERS:
Info: TIMESTEP               2
Info: NUMBER OF STEPS        80000
Info: STEPS PER CYCLE        20
Info: PERIODIC CELL BASIS 1  993.12 0 0
Info: PERIODIC CELL BASIS 2  0 993.12 0
Info: PERIODIC CELL BASIS 3  0 0 993.12
Info: PERIODIC CELL CENTER   0 0 0
Info: WRAPPING ALL CLUSTERS AROUND PERIODIC BOUNDARIES ON OUTPUT.
Info: FIRST LDB TIMESTEP     100
Info: HYBRIDLB GROUP SIZE     480
Info: LAST LDB TIMESTEP     -1
Info: HOM BACKGROUND SCALING 1
Info: PME BACKGROUND SCALING 1
Info: REMOVING LOAD FROM NODE 0
Info: REMOVING LOAD FROM NODE 1
Info: REMOVING PATCHES FROM PROCESSOR 0
Info: REMOVING PATCHES FROM PROCESSOR 1
Info: MAX SELF PARTITIONS    1
Info: MAX PAIR PARTITIONS    1
Info: SELF PARTITION ATOMS   154
Info: SELF2 PARTITION ATOMS   154
Info: PAIR PARTITION ATOMS   318
Info: PAIR2 PARTITION ATOMS  637
Info: MIN ATOMS PER PATCH    40
Info: VELOCITY FILE          chromat100-in.vel
Info: CENTER OF MASS MOVING INITIALLY? NO
Info: DIELECTRIC             1
Info: EXCLUDE                SCALED ONE-FOUR
Info: 1-4 ELECTROSTATICS SCALED BY 1
Info: MODIFIED 1-4 VDW PARAMETERS WILL BE USED
Info: NO DCD TRAJECTORY OUTPUT
Info: NO EXTENDED SYSTEM TRAJECTORY OUTPUT
Info: NO VELOCITY DCD OUTPUT
Info: NO FORCE DCD OUTPUT
Info: OUTPUT FILENAME        ./chromat100-out
Info: BINARY OUTPUT FILES WILL BE USED
Info: RESTART FILENAME       ./chromat100-out.restart
Info: RESTART FREQUENCY      90000
Info: BINARY RESTART FILES WILL BE USED
Info: SWITCHING ACTIVE
Info: SWITCHING ON           10
Info: SWITCHING OFF          12
Info: PAIRLIST DISTANCE      13.5
Info: PAIRLIST SHRINK RATE   0.01
Info: PAIRLIST GROW RATE     0.01
Info: PAIRLIST TRIGGER       0.3
Info: PAIRLISTS PER CYCLE    2
Info: REQUIRING 100 PROCESSORS FOR PAIRLISTS
Info: PAIRLISTS ENABLED
Info: MARGIN                 0.48
Info: HYDROGEN GROUP CUTOFF  2.5
Info: PATCH DIMENSION        16.48
Info: ENERGY OUTPUT STEPS    200
Info: CROSSTERM ENERGY INCLUDED IN DIHEDRAL
Info: TIMING OUTPUT STEPS    200
Info: LANGEVIN DYNAMICS ACTIVE
Info: LANGEVIN TEMPERATURE   298
Info: LANGEVIN USING BBK INTEGRATOR
Info: LANGEVIN DAMPING COEFFICIENT IS 5 INVERSE PS
Info: LANGEVIN DYNAMICS NOT APPLIED TO HYDROGENS
Info: LANGEVIN PISTON PRESSURE CONTROL ACTIVE
Info:        TARGET PRESSURE IS 1.01325 BAR
Info:     OSCILLATION PERIOD IS 100 FS
Info:             DECAY TIME IS 50 FS
Info:     PISTON TEMPERATURE IS 298 K
Info:       PRESSURE CONTROL IS GROUP-BASED
Info:    INITIAL STRAIN RATE IS -1.014e-07 -1.014e-07 -1.014e-07
Info:       CELL FLUCTUATION IS ISOTROPIC
Info: PARTICLE MESH EWALD (PME) ACTIVE
Info: PME TOLERANCE               1e-06
Info: PME EWALD COEFFICIENT       0.257952
Info: PME INTERPOLATION ORDER     8
Info: PME GRID DIMENSIONS         512 512 512
Info: PME MAXIMUM GRID SPACING    2.1
Info: FULL ELECTROSTATIC EVALUATION FREQUENCY      4
Info: USING VERLET I (r-RESPA) MTS SCHEME.
Info: C1 SPLITTING OF LONG RANGE ELECTROSTATICS
Info: PLACING ATOMS IN PATCHES BY HYDROGEN GROUPS
Info: RIGID BONDS TO HYDROGEN : ALL
Info:         ERROR TOLERANCE : 1e-08
Info:          MAX ITERATIONS : 100
Info: RIGID WATER USING SETTLE ALGORITHM
Info: RANDOM NUMBER SEED     3141
Info: USE HYDROGEN BONDS?    NO
Info: STRUCTURE FILE         final.js.inter
Info: PARAMETER file: CHARMM format!
Info: PARAMETERS             parameters/all27_prot_lipid_cmap.par
Info: PARAMETERS             parameters/all27_prot_lipid_cmap-wcofactors.par
Info: PARAMETERS             parameters/cofactors.par
Info: PARAMETERS             parameters/par_all27_prot_na.inp
Info: PARAMETERS             parameters/par_all27_prot_na.prm
Info: PARAMETERS             parameters/par_all36_lipid.prm
Info: PARAMETERS             parameters/par_fes.inp
Info: PARAMETERS             parameters/par_heme.inp
Info: PARAMETERS             parameters/rhodopin-glucoside.par
Info: PARAMETERS             parameters/tail-endcap.par
Info: PARAMETERS             parameters/tail-internal-unit.par
Info: USING ARITHMETIC MEAN TO COMBINE L-J SIGMA PARAMETERS
Info: BINARY COORDINATES     chromat100-in.coor
Info: SUMMARY OF PARAMETERS:
Info: 1261 BONDS
Info: 3182 ANGLES
Info: 4047 DIHEDRAL
Info: 507 IMPROPER
Info: 18 CROSSTERM
Info: 692 VDW
Info: 0 VDW_PAIRS
Info: 0 NBTHOLE_PAIRS
Info: NONBONDED TABLE R-SQUARED SPACING: 0.0625
Info: NONBONDED TABLE SIZE: 769 POINTS
Info: Running with 32 input processors.
Info: Running with 32 output processors (32 of them will output simultaneously).
Info: INPUT PROC LOCATIONS: 768 3840 4608 6912 10752 13056 16896 19200 19968 23040 ... 74496
Info: OUTPUT PROC LOCATIONS: 1536 3072 6144 7680 9216 12288 13824 15360 18432 21504 ... 75264
Info: LOADED 124565308 TOTAL EXCLUSIONS
Info: REMOVING COM VELOCITY -0.000499722 0.000489814 0.00180488
Info: STRUCTURE SUMMARY:
Info: 100243442 ATOMS
Info: 68673487 BONDS
Info: 41723184 ANGLES
Info: 14480756 DIHEDRALS
Info: 660632 IMPROPERS
Info: 161938 CROSSTERMS
Info: 0 EXCLUSIONS
Info: 66181848 RIGID BONDS
Info: 234548478 DEGREES OF FREEDOM
Info: 34061594 HYDROGEN GROUPS
Info: 4 ATOMS IN LARGEST HYDROGEN GROUP
Info: 34061594 MIGRATION GROUPS
Info: 4 ATOMS IN LARGEST MIGRATION GROUP
Info: TOTAL MASS = 6.04438e+08 amu
Info: TOTAL CHARGE = 521.083 e
Info: MASS DENSITY = 1.02472 g/cm^3
Info: ATOM DENSITY = 0.102341 atoms/A^3
Info: PME Z PENCIL LOCATIONS: 1 7 15 23 31 39 47 55 63 71 ...
Info: PME Y PENCIL LOCATIONS: 3 11 19 27 35 43 51 59 67 83 ...
Info: PME X PENCIL LOCATIONS: 13 21 29 37 45 53 61 69 77 85 ...
ETITLE: TS BOND ANGLE DIHED IMPRP ELECT VDW BOUNDARY MISC KINETIC TOTAL TEMP POTENTIAL TOTAL3 TEMPAVG PRESSURE GPRESSURE VOLUME PRESSAVG GPRESSAVG
ENERGY: 0 862368.3646 20606396.3109 1749214.6220 152022.8999 -370786736.5536 34496074.1385 0.0000 0.0000 69208716.2169 -243711944.0007 296.9741 -312920660.2176 -243168769.6335 296.9741 -107.3632 7.8325 979501677.5393 -107.3632 7.8325
ENERGY: 16000 874375.5295 21013045.6161 1746642.7384 153573.4361 -370351648.9436 34356173.4941 0.0000 0.0000 69098370.6961 -243109467.4333 296.5006 -312207838.1294 -242548896.6296 296.5079 -124.5419 -9.8275 979802478.6971 0.9663 0.9668
ENERGY: 32000 876897.0421 21011722.4489 1745297.1828 152885.6117 -370288320.9910 34300029.8018 0.0000 0.0000 69091004.4935 -243110484.4103 296.4690 -312201488.9039 -242551304.4557 296.5430 -140.0373 -25.2336 979586110.0277 0.6235 0.6214
ENERGY: 48000 869862.8709 21019630.2096 1741082.0870 153245.3429 -370504497.7206 34488209.8252 0.0000 0.0000 69093661.9135 -243138805.4715 296.4804 -312232467.3851 -242579501.0332 296.5182 -53.3586 61.3976 978905918.3687 0.3048 0.3084
ENERGY: 64000 875824.1783 20994187.8669 1737912.6078 153512.7169 -370334302.4025 34319060.7290 0.0000 0.0000 69083892.4720 -243169911.8315 296.4385 -312253804.3035 -242609563.0027 296.5084 -127.3338 -12.5038 979126339.1588 0.8684 0.8793
ENERGY: 80000 874111.9269 21016276.9366 1737752.1306 153273.2760 -370414446.8942 34368257.7355 0.0000 0.0000 69105017.6811 -243159757.2076 296.5291 -312264774.8887 -242600225.8282 296.5458 -104.1521 10.1584 978650990.2511 1.0479 1.0516
