Info: SIMULATION PARAMETERS:
Info: TIMESTEP               2
Info: NUMBER OF STEPS        80000
Info: STEPS PER CYCLE        20
Info: PERIODIC CELL BASIS 1  993.12 0 0
Info: PERIODIC CELL BASIS 2  0 993.12 0
Info: PERIODIC CELL BASIS 3  0 0 993.12
Info: PERIODIC CELL CENTER   0 0 0
Info: WRAPPING ALL CLUSTERS AROUND PERIODIC BOUNDARIES ON OUTPUT.
Info: FIRST LDB TIMESTEP     100
Info: HYBRIDLB GROUP SIZE     480
Info: LAST LDB TIMESTEP     -1
Info: HOM BACKGROUND SCALING 1
Info: PME BACKGROUND SCALING 1
Info: REMOVING LOAD FROM NODE 0
Info: REMOVING LOAD FROM NODE 1
Info: REMOVING PATCHES FROM PROCESSOR 0
Info: REMOVING PATCHES FROM PROCESSOR 1
Info: MAX SELF PARTITIONS    1
Info: MAX PAIR PARTITIONS    1
Info: SELF PARTITION ATOMS   154
Info: SELF2 PARTITION ATOMS   154
Info: PAIR PARTITION ATOMS   318
Info: PAIR2 PARTITION ATOMS  637
Info: MIN ATOMS PER PATCH    40
Info: VELOCITY FILE          chromat100-in.vel
Info: CENTER OF MASS MOVING INITIALLY? NO
Info: DIELECTRIC             1
Info: EXCLUDE                SCALED ONE-FOUR
Info: 1-4 ELECTROSTATICS SCALED BY 1
Info: MODIFIED 1-4 VDW PARAMETERS WILL BE USED
Info: NO DCD TRAJECTORY OUTPUT
Info: NO EXTENDED SYSTEM TRAJECTORY OUTPUT
Info: NO VELOCITY DCD OUTPUT
Info: NO FORCE DCD OUTPUT
Info: OUTPUT FILENAME        ./chromat100-out
Info: BINARY OUTPUT FILES WILL BE USED
Info: RESTART FILENAME       ./chromat100-out.restart
Info: RESTART FREQUENCY      90000
Info: BINARY RESTART FILES WILL BE USED
Info: SWITCHING ACTIVE
Info: SWITCHING ON           10
Info: SWITCHING OFF          12
Info: PAIRLIST DISTANCE      13.5
Info: PAIRLIST SHRINK RATE   0.01
Info: PAIRLIST GROW RATE     0.01
Info: PAIRLIST TRIGGER       0.3
Info: PAIRLISTS PER CYCLE    2
Info: REQUIRING 100 PROCESSORS FOR PAIRLISTS
Info: PAIRLISTS ENABLED
Info: MARGIN                 0.48
Info: HYDROGEN GROUP CUTOFF  2.5
Info: PATCH DIMENSION        16.48
Info: ENERGY OUTPUT STEPS    200
Info: CROSSTERM ENERGY INCLUDED IN DIHEDRAL
Info: TIMING OUTPUT STEPS    200
Info: LANGEVIN DYNAMICS ACTIVE
Info: LANGEVIN TEMPERATURE   298
Info: LANGEVIN USING BBK INTEGRATOR
Info: LANGEVIN DAMPING COEFFICIENT IS 5 INVERSE PS
Info: LANGEVIN DYNAMICS NOT APPLIED TO HYDROGENS
Info: LANGEVIN PISTON PRESSURE CONTROL ACTIVE
Info:        TARGET PRESSURE IS 1.01325 BAR
Info:     OSCILLATION PERIOD IS 100 FS
Info:             DECAY TIME IS 50 FS
Info:     PISTON TEMPERATURE IS 298 K
Info:       PRESSURE CONTROL IS GROUP-BASED
Info:    INITIAL STRAIN RATE IS -1.014e-07 -1.014e-07 -1.014e-07
Info:       CELL FLUCTUATION IS ISOTROPIC
Info: PARTICLE MESH EWALD (PME) ACTIVE
Info: PME TOLERANCE               1e-06
Info: PME EWALD COEFFICIENT       0.257952
Info: PME INTERPOLATION ORDER     8
Info: PME GRID DIMENSIONS         512 512 512
Info: PME MAXIMUM GRID SPACING    2.1
Info: FULL ELECTROSTATIC EVALUATION FREQUENCY      4
Info: USING VERLET I (r-RESPA) MTS SCHEME.
Info: C1 SPLITTING OF LONG RANGE ELECTROSTATICS
Info: PLACING ATOMS IN PATCHES BY HYDROGEN GROUPS
Info: RIGID BONDS TO HYDROGEN : ALL
Info:         ERROR TOLERANCE : 1e-08
Info:          MAX ITERATIONS : 100
Info: RIGID WATER USING SETTLE ALGORITHM
Info: RANDOM NUMBER SEED     3141
Info: USE HYDROGEN BONDS?    NO
Info: STRUCTURE FILE         final.js.inter
Info: PARAMETER file: CHARMM format!
Info: PARAMETERS             parameters/all27_prot_lipid_cmap.par
Info: PARAMETERS             parameters/all27_prot_lipid_cmap-wcofactors.par
Info: PARAMETERS             parameters/cofactors.par
Info: PARAMETERS             parameters/par_all27_prot_na.inp
Info: PARAMETERS             parameters/par_all27_prot_na.prm
Info: PARAMETERS             parameters/par_all36_lipid.prm
Info: PARAMETERS             parameters/par_fes.inp
Info: PARAMETERS             parameters/par_heme.inp
Info: PARAMETERS             parameters/rhodopin-glucoside.par
Info: PARAMETERS             parameters/tail-endcap.par
Info: PARAMETERS             parameters/tail-internal-unit.par
Info: USING ARITHMETIC MEAN TO COMBINE L-J SIGMA PARAMETERS
Info: BINARY COORDINATES     chromat100-in.coor
Info: SUMMARY OF PARAMETERS:
Info: 1261 BONDS
Info: 3182 ANGLES
Info: 4047 DIHEDRAL
Info: 507 IMPROPER
Info: 18 CROSSTERM
Info: 692 VDW
Info: 0 VDW_PAIRS
Info: 0 NBTHOLE_PAIRS
Info: NONBONDED TABLE R-SQUARED SPACING: 0.0625
Info: NONBONDED TABLE SIZE: 769 POINTS
Info: Running with 32 input processors.
Info: Running with 32 output processors (32 of them will output simultaneously).
Info: INPUT PROC LOCATIONS: 768 3840 4608 6912 10752 13056 16896 19200 19968 23040 ... 74496
Info: OUTPUT PROC LOCATIONS: 1536 3072 6144 7680 9216 12288 13824 15360 18432 21504 ... 75264
Info: LOADED 124565308 TOTAL EXCLUSIONS
Info: REMOVING COM VELOCITY -0.000499722 0.000489814 0.00180488
Info: STRUCTURE SUMMARY:
Info: 100243442 ATOMS
Info: 68673487 BONDS
Info: 41723184 ANGLES
Info: 14480756 DIHEDRALS
Info: 660632 IMPROPERS
Info: 161938 CROSSTERMS
Info: 0 EXCLUSIONS
Info: 66181848 RIGID BONDS
Info: 234548478 DEGREES OF FREEDOM
Info: 34061594 HYDROGEN GROUPS
Info: 4 ATOMS IN LARGEST HYDROGEN GROUP
Info: 34061594 MIGRATION GROUPS
Info: 4 ATOMS IN LARGEST MIGRATION GROUP
Info: TOTAL MASS = 6.04438e+08 amu
Info: TOTAL CHARGE = 521.083 e
Info: MASS DENSITY = 1.02472 g/cm^3
Info: ATOM DENSITY = 0.102341 atoms/A^3
Info: PME Z PENCIL LOCATIONS: 1 79 127 175 223 271 319 367 415 463 ...
Info: PME Y PENCIL LOCATIONS: 31 95 143 191 239 287 335 383 479 527 ...
Info: PME X PENCIL LOCATIONS: 47 63 111 159 255 303 351 431 447 495 ...
ETITLE: TS BOND ANGLE DIHED IMPRP ELECT VDW BOUNDARY MISC KINETIC TOTAL TEMP POTENTIAL TOTAL3 TEMPAVG PRESSURE GPRESSURE VOLUME PRESSAVG GPRESSAVG
ENERGY: 0 862368.3646 20606396.3109 1749214.6220 152022.8999 -370786736.5535 34496074.1385 0.0000 0.0000 69208716.2169 -243711944.0006 296.9741 -312920660.2175 -243168769.6334 296.9741 -107.3632 7.8325 979501677.5393 -107.3632 7.8325
ENERGY: 16000 872594.9214 21014857.5486 1747132.6972 153044.0407 -370448128.3172 34448676.8225 0.0000 0.0000 69093664.5274 -243118157.7595 296.4804 -312211822.2868 -242558726.5055 296.5094 -83.0084 31.5778 979533040.0246 0.5552 0.5621
ENERGY: 32000 875166.5769 21005363.9590 1743688.4963 152787.2732 -370332377.5785 34342530.2219 0.0000 0.0000 69081750.0754 -243131090.9759 296.4293 -312212841.0513 -242571674.9215 296.5033 -125.0353 -10.3154 979532413.1304 0.9521 0.9532
ENERGY: 48000 869398.9317 21011446.0016 1741533.6864 152856.8406 -370518105.1688 34507629.0936 0.0000 0.0000 69087818.7406 -243147421.8743 296.4553 -312235240.6149 -242588550.4928 296.5217 -43.4368 71.4067 978910357.1365 0.4740 0.4781
ENERGY: 64000 876813.4578 20998677.4109 1739324.4589 153166.0170 -370288506.0397 34277715.7121 0.0000 0.0000 69081797.5777 -243161011.4052 296.4295 -312242808.9829 -242601985.4438 296.5056 -142.4786 -27.7969 979176250.8882 1.0495 1.0469
ENERGY: 80000 880332.7871 21003499.9509 1737031.2787 152724.1919 -370225306.0182 34181129.3715 0.0000 0.0000 69098497.8831 -243172090.5549 296.5011 -312270588.4380 -242611457.8447 296.5431 -185.3541 -70.8265 979132730.2746 1.3581 1.3558
