taskid: 0 hostname: c476-002.stampede2.tacc.utexas.edu
 Ntasks in X           56 , ntasks in Y           60
--- WARNING: traj_opt is zero, but num_traj is not zero; setting num_traj to zero.
--- NOTE: sst_update is 0, setting io_form_auxinput4 = 0 and auxinput4_interval = 0 for all domains
--- NOTE: grid_fdda is 0 for domain      1, setting gfdda interval and ending time to 0 for that domain.
--- NOTE: both grid_sfdda and pxlsm_soil_nudge are 0 for domain      1, setting sgfdda interval and ending time to 0 for that domain.
--- NOTE: obs_nudge_opt is 0 for domain      1, setting obs nudging interval and ending time to 0 for that domain.
bl_pbl_physics /= 4, implies mfshconv must be 0, resetting
--- NOTE: num_soil_layers has been set to      5
WRF V3.6.1 MODEL
 *************************************
 Parent domain
 ids,ide,jds,jde            1        9120           1        9216
 ims,ime,jms,jme           -4         170          -4         161
 ips,ipe,jps,jpe            1         163           1         154
 *************************************
DYNAMICS OPTION: Eulerian Mass Coordinate
 alloc_space_field: domain            1 ,             1011491832  bytes allocated
med_initialdata_input: calling input_input
 W A R N I N G : Problem opening auxhist1_file_d01.txt
 W A R N I N G : Problem opening auxhist1_file_d01.txt
 Ignoring problems reading auxhist1_file_d01.txt
Continuing.  To make this a fatal error, set ignore_iofields_warn to false in namelist

 NetCDF error: NetCDF: Variable not found
 NetCDF error in wrf_io.F90, line        2718  Varname VAR_SSO
 NetCDF error: NetCDF: Variable not found
 NetCDF error in wrf_io.F90, line        2718  Varname FNDALBSI
 NetCDF error: NetCDF: Variable not found
 NetCDF error in wrf_io.F90, line        2718  Varname FNDSNOWSI
 NetCDF error: NetCDF: Variable not found
 NetCDF error in wrf_io.F90, line        2718  Varname FNDICEDEPTH
 NetCDF error: NetCDF: Variable not found
 NetCDF error in wrf_io.F90, line        2718  Varname LAKE_DEPTH
 NetCDF error: NetCDF: Variable not found
 NetCDF error in wrf_io.F90, line        2718  Varname UOCE
 NetCDF error: NetCDF: Variable not found
 NetCDF error in wrf_io.F90, line        2718  Varname VOCE
 NetCDF error: NetCDF: Variable not found
 NetCDF error in wrf_io.F90, line        2718  Varname FRC_URB2D
 NetCDF error: NetCDF: Variable not found
 NetCDF error in wrf_io.F90, line        2718  Varname VAR
 NetCDF error: NetCDF: Variable not found
 NetCDF error in wrf_io.F90, line        2718  Varname TLP_STRAT
 NetCDF error: NetCDF: Variable not found
 NetCDF error in wrf_io.F90, line        2718  Varname P_STRAT
 NetCDF error: NetCDF: Variable not found
 NetCDF error in wrf_io.F90, line        2718  Varname CPLMASK
 NetCDF error: NetCDF: Variable not found
 NetCDF error in wrf_io.F90, line        2718  Varname LAKEFLAG
 NetCDF error: NetCDF: Variable not found
 NetCDF error in wrf_io.F90, line        2718  Varname LAKE_DEPTH_FLAG
 NetCDF error: NetCDF: Variable not found
 NetCDF error in wrf_io.F90, line        2718  Varname LAKEMASK
Timing for processing wrfinput file (stream 0) for domain        1:  123.98264 elapsed seconds
INPUT LandUse = "USGS"
 LANDUSE TYPE = "USGS" FOUND          33  CATEGORIES           2  SEASONS WATER CATEGORY =           16  SNOW CATEGORY =           24
WRF NUMBER OF TILES FROM OMP_GET_MAX_THREADS =  24
 Tile Strategy is not specified. Assuming 1D-Y
WRF TILE   1 IS      1 IE    163 JS      1 JE      7
WRF TILE   2 IS      1 IE    163 JS      8 JE     14
WRF TILE   3 IS      1 IE    163 JS     15 JE     21
WRF TILE   4 IS      1 IE    163 JS     22 JE     28
WRF TILE   5 IS      1 IE    163 JS     29 JE     35
WRF TILE   6 IS      1 IE    163 JS     36 JE     41
WRF TILE   7 IS      1 IE    163 JS     42 JE     47
WRF TILE   8 IS      1 IE    163 JS     48 JE     53
WRF TILE   9 IS      1 IE    163 JS     54 JE     59
WRF TILE  10 IS      1 IE    163 JS     60 JE     65
WRF TILE  11 IS      1 IE    163 JS     66 JE     71
WRF TILE  12 IS      1 IE    163 JS     72 JE     77
WRF TILE  13 IS      1 IE    163 JS     78 JE     83
WRF TILE  14 IS      1 IE    163 JS     84 JE     89
WRF TILE  15 IS      1 IE    163 JS     90 JE     95
WRF TILE  16 IS      1 IE    163 JS     96 JE    101
WRF TILE  17 IS      1 IE    163 JS    102 JE    107
WRF TILE  18 IS      1 IE    163 JS    108 JE    113
WRF TILE  19 IS      1 IE    163 JS    114 JE    119
WRF TILE  20 IS      1 IE    163 JS    120 JE    126
WRF TILE  21 IS      1 IE    163 JS    127 JE    133
WRF TILE  22 IS      1 IE    163 JS    134 JE    140
WRF TILE  23 IS      1 IE    163 JS    141 JE    147
WRF TILE  24 IS      1 IE    163 JS    148 JE    154
WRF NUMBER OF TILES =  24
Timing for main: time 2012-10-29_12:00:00 on domain   1:    0.40356 elapsed seconds
Timing for main: time 2012-10-29_12:00:00 on domain   1:    0.17000 elapsed seconds
Timing for main: time 2012-10-29_12:00:00 on domain   1:    0.17094 elapsed seconds
Timing for main: time 2012-10-29_12:00:00 on domain   1:    0.17041 elapsed seconds
Timing for main: time 2012-10-29_12:00:01 on domain   1:    0.17154 elapsed seconds
Timing for main: time 2012-10-29_12:00:01 on domain   1:    0.16939 elapsed seconds
Timing for main: time 2012-10-29_12:00:01 on domain   1:    0.16899 elapsed seconds
Timing for main: time 2012-10-29_12:00:01 on domain   1:    0.16900 elapsed seconds
Timing for main: time 2012-10-29_12:00:01 on domain   1:    0.16894 elapsed seconds
Timing for main: time 2012-10-29_12:00:02 on domain   1:    0.17021 elapsed seconds
Timing for main: time 2012-10-29_12:00:02 on domain   1:    0.17277 elapsed seconds
Timing for main: time 2012-10-29_12:00:02 on domain   1:    0.16844 elapsed seconds
Timing for main: time 2012-10-29_12:00:02 on domain   1:    0.17146 elapsed seconds
Timing for main: time 2012-10-29_12:00:02 on domain   1:    0.17651 elapsed seconds
Timing for main: time 2012-10-29_12:00:03 on domain   1:    0.16793 elapsed seconds
Timing for main: time 2012-10-29_12:00:03 on domain   1:    0.16802 elapsed seconds
Timing for main: time 2012-10-29_12:00:03 on domain   1:    0.16754 elapsed seconds
Timing for main: time 2012-10-29_12:00:03 on domain   1:    0.17677 elapsed seconds
Timing for main: time 2012-10-29_12:00:03 on domain   1:    0.17129 elapsed seconds
Timing for main: time 2012-10-29_12:00:04 on domain   1:    0.16711 elapsed seconds
Timing for main: time 2012-10-29_12:00:04 on domain   1:    0.16741 elapsed seconds
Timing for main: time 2012-10-29_12:00:04 on domain   1:    0.16821 elapsed seconds
Timing for main: time 2012-10-29_12:00:04 on domain   1:    0.16747 elapsed seconds
Timing for main: time 2012-10-29_12:00:04 on domain   1:    0.16909 elapsed seconds
Timing for main: time 2012-10-29_12:00:05 on domain   1:    0.16965 elapsed seconds
Timing for main: time 2012-10-29_12:00:05 on domain   1:    0.16872 elapsed seconds
Timing for main: time 2012-10-29_12:00:05 on domain   1:    0.17076 elapsed seconds
Timing for main: time 2012-10-29_12:00:05 on domain   1:    0.17358 elapsed seconds
Timing for main: time 2012-10-29_12:00:05 on domain   1:    0.16602 elapsed seconds
Timing for main: time 2012-10-29_12:00:06 on domain   1:    0.16982 elapsed seconds
Timing for main: time 2012-10-29_12:00:06 on domain   1:    0.17443 elapsed seconds
Timing for main: time 2012-10-29_12:00:06 on domain   1:    0.16765 elapsed seconds
Timing for main: time 2012-10-29_12:00:06 on domain   1:    0.16884 elapsed seconds
Timing for main: time 2012-10-29_12:00:06 on domain   1:    0.16862 elapsed seconds
Timing for main: time 2012-10-29_12:00:07 on domain   1:    0.17276 elapsed seconds
Timing for main: time 2012-10-29_12:00:07 on domain   1:    0.17378 elapsed seconds
Timing for main: time 2012-10-29_12:00:07 on domain   1:    0.16932 elapsed seconds
Timing for main: time 2012-10-29_12:00:07 on domain   1:    0.17013 elapsed seconds
Timing for main: time 2012-10-29_12:00:07 on domain   1:    0.16869 elapsed seconds
Timing for main: time 2012-10-29_12:00:08 on domain   1:    0.16900 elapsed seconds
Timing for main: time 2012-10-29_12:00:08 on domain   1:    0.16877 elapsed seconds
Timing for main: time 2012-10-29_12:00:08 on domain   1:    0.17057 elapsed seconds
Timing for main: time 2012-10-29_12:00:08 on domain   1:    0.17643 elapsed seconds
Timing for main: time 2012-10-29_12:00:08 on domain   1:    0.17268 elapsed seconds
Timing for main: time 2012-10-29_12:00:09 on domain   1:    0.17302 elapsed seconds
Timing for main: time 2012-10-29_12:00:09 on domain   1:    0.16946 elapsed seconds
Timing for main: time 2012-10-29_12:00:09 on domain   1:    0.16888 elapsed seconds
Timing for main: time 2012-10-29_12:00:09 on domain   1:    0.16846 elapsed seconds
Timing for main: time 2012-10-29_12:00:09 on domain   1:    0.16920 elapsed seconds
Timing for main: time 2012-10-29_12:00:10 on domain   1:    0.16822 elapsed seconds
Timing for main: time 2012-10-29_12:00:10 on domain   1:    0.17328 elapsed seconds
Timing for main: time 2012-10-29_12:00:10 on domain   1:    0.17146 elapsed seconds
Timing for main: time 2012-10-29_12:00:10 on domain   1:    0.16699 elapsed seconds
Timing for main: time 2012-10-29_12:00:10 on domain   1:    0.17170 elapsed seconds
Timing for main: time 2012-10-29_12:00:11 on domain   1:    0.16878 elapsed seconds
Timing for main: time 2012-10-29_12:00:11 on domain   1:    0.16707 elapsed seconds
Timing for main: time 2012-10-29_12:00:11 on domain   1:    0.17051 elapsed seconds
Timing for main: time 2012-10-29_12:00:11 on domain   1:    0.17472 elapsed seconds
Timing for main: time 2012-10-29_12:00:11 on domain   1:    0.17345 elapsed seconds
Timing for main: time 2012-10-29_12:00:12 on domain   1:    0.16816 elapsed seconds
Timing for main: time 2012-10-29_12:00:12 on domain   1:    0.17038 elapsed seconds
Timing for main: time 2012-10-29_12:00:12 on domain   1:    0.16647 elapsed seconds
Timing for main: time 2012-10-29_12:00:12 on domain   1:    0.16757 elapsed seconds
Timing for main: time 2012-10-29_12:00:12 on domain   1:    0.17001 elapsed seconds
Timing for main: time 2012-10-29_12:00:13 on domain   1:    0.16996 elapsed seconds
Timing for main: time 2012-10-29_12:00:13 on domain   1:    0.16855 elapsed seconds
Timing for main: time 2012-10-29_12:00:13 on domain   1:    0.16898 elapsed seconds
Timing for main: time 2012-10-29_12:00:13 on domain   1:    0.17295 elapsed seconds
Timing for main: time 2012-10-29_12:00:13 on domain   1:    0.16792 elapsed seconds
Timing for main: time 2012-10-29_12:00:14 on domain   1:    0.17357 elapsed seconds
Timing for main: time 2012-10-29_12:00:14 on domain   1:    0.16657 elapsed seconds
Timing for main: time 2012-10-29_12:00:14 on domain   1:    0.16910 elapsed seconds
Timing for main: time 2012-10-29_12:00:14 on domain   1:    0.17010 elapsed seconds
Timing for main: time 2012-10-29_12:00:14 on domain   1:    0.16973 elapsed seconds
Timing for main: time 2012-10-29_12:00:15 on domain   1:    0.16857 elapsed seconds
Timing for main: time 2012-10-29_12:00:15 on domain   1:    0.17390 elapsed seconds
Timing for main: time 2012-10-29_12:00:15 on domain   1:    0.16924 elapsed seconds
Timing for main: time 2012-10-29_12:00:15 on domain   1:    0.16893 elapsed seconds
Timing for main: time 2012-10-29_12:00:15 on domain   1:    0.16910 elapsed seconds
Timing for main: time 2012-10-29_12:00:16 on domain   1:    0.16900 elapsed seconds
Timing for main: time 2012-10-29_12:00:16 on domain   1:    0.17304 elapsed seconds
Timing for main: time 2012-10-29_12:00:16 on domain   1:    0.17078 elapsed seconds
Timing for main: time 2012-10-29_12:00:16 on domain   1:    0.17145 elapsed seconds
Timing for main: time 2012-10-29_12:00:16 on domain   1:    0.16818 elapsed seconds
Timing for main: time 2012-10-29_12:00:17 on domain   1:    0.16711 elapsed seconds
Timing for main: time 2012-10-29_12:00:17 on domain   1:    0.16955 elapsed seconds
Timing for main: time 2012-10-29_12:00:17 on domain   1:    0.17295 elapsed seconds
Timing for main: time 2012-10-29_12:00:17 on domain   1:    0.16706 elapsed seconds
Timing for main: time 2012-10-29_12:00:17 on domain   1:    0.17197 elapsed seconds
Timing for main: time 2012-10-29_12:00:18 on domain   1:    0.16718 elapsed seconds
Timing for main: time 2012-10-29_12:00:18 on domain   1:    0.16969 elapsed seconds
Timing for main: time 2012-10-29_12:00:18 on domain   1:    0.16957 elapsed seconds
Timing for main: time 2012-10-29_12:00:18 on domain   1:    0.16728 elapsed seconds
Timing for main: time 2012-10-29_12:00:18 on domain   1:    0.16864 elapsed seconds
Timing for main: time 2012-10-29_12:00:19 on domain   1:    0.16996 elapsed seconds
Timing for main: time 2012-10-29_12:00:19 on domain   1:    0.17124 elapsed seconds
Timing for main: time 2012-10-29_12:00:19 on domain   1:    0.17344 elapsed seconds
Timing for main: time 2012-10-29_12:00:19 on domain   1:    0.16737 elapsed seconds
Timing for main: time 2012-10-29_12:00:19 on domain   1:    0.16803 elapsed seconds
Timing for main: time 2012-10-29_12:00:20 on domain   1:    0.17333 elapsed seconds
Timing for main: time 2012-10-29_12:00:20 on domain   1:    0.16884 elapsed seconds
Timing for main: time 2012-10-29_12:00:20 on domain   1:    0.16631 elapsed seconds
Timing for main: time 2012-10-29_12:00:20 on domain   1:    0.16986 elapsed seconds
Timing for main: time 2012-10-29_12:00:20 on domain   1:    0.16912 elapsed seconds
Timing for main: time 2012-10-29_12:00:21 on domain   1:    0.16922 elapsed seconds
Timing for main: time 2012-10-29_12:00:21 on domain   1:    0.16939 elapsed seconds
Timing for main: time 2012-10-29_12:00:21 on domain   1:    0.16859 elapsed seconds
Timing for main: time 2012-10-29_12:00:21 on domain   1:    0.16976 elapsed seconds
Timing for main: time 2012-10-29_12:00:21 on domain   1:    0.16974 elapsed seconds
Timing for main: time 2012-10-29_12:00:22 on domain   1:    0.17151 elapsed seconds
Timing for main: time 2012-10-29_12:00:22 on domain   1:    0.16878 elapsed seconds
Timing for main: time 2012-10-29_12:00:22 on domain   1:    0.17183 elapsed seconds
Timing for main: time 2012-10-29_12:00:22 on domain   1:    0.16917 elapsed seconds
Timing for main: time 2012-10-29_12:00:22 on domain   1:    0.16904 elapsed seconds
Timing for main: time 2012-10-29_12:00:23 on domain   1:    0.17004 elapsed seconds
Timing for main: time 2012-10-29_12:00:23 on domain   1:    0.16852 elapsed seconds
Timing for main: time 2012-10-29_12:00:23 on domain   1:    0.16873 elapsed seconds
Timing for main: time 2012-10-29_12:00:23 on domain   1:    0.17579 elapsed seconds
Timing for main: time 2012-10-29_12:00:23 on domain   1:    0.16789 elapsed seconds
Timing for main: time 2012-10-29_12:00:24 on domain   1:    0.16925 elapsed seconds
Timing for main: time 2012-10-29_12:00:24 on domain   1:    0.17046 elapsed seconds
Timing for main: time 2012-10-29_12:00:24 on domain   1:    0.16872 elapsed seconds
Timing for main: time 2012-10-29_12:00:24 on domain   1:    0.17501 elapsed seconds
Timing for main: time 2012-10-29_12:00:24 on domain   1:    0.16873 elapsed seconds
Timing for main: time 2012-10-29_12:00:25 on domain   1:    0.17269 elapsed seconds
Timing for main: time 2012-10-29_12:00:25 on domain   1:    0.17046 elapsed seconds
Timing for main: time 2012-10-29_12:00:25 on domain   1:    0.17059 elapsed seconds
Timing for main: time 2012-10-29_12:00:25 on domain   1:    0.16997 elapsed seconds
Timing for main: time 2012-10-29_12:00:25 on domain   1:    0.16844 elapsed seconds
Timing for main: time 2012-10-29_12:00:26 on domain   1:    0.17068 elapsed seconds
Timing for main: time 2012-10-29_12:00:26 on domain   1:    0.17049 elapsed seconds
Timing for main: time 2012-10-29_12:00:26 on domain   1:    0.16889 elapsed seconds
Timing for main: time 2012-10-29_12:00:26 on domain   1:    0.17290 elapsed seconds
Timing for main: time 2012-10-29_12:00:26 on domain   1:    0.16778 elapsed seconds
Timing for main: time 2012-10-29_12:00:27 on domain   1:    0.17000 elapsed seconds
Timing for main: time 2012-10-29_12:00:27 on domain   1:    0.16848 elapsed seconds
Timing for main: time 2012-10-29_12:00:27 on domain   1:    0.16904 elapsed seconds
Timing for main: time 2012-10-29_12:00:27 on domain   1:    0.17012 elapsed seconds
Timing for main: time 2012-10-29_12:00:27 on domain   1:    0.16836 elapsed seconds
Timing for main: time 2012-10-29_12:00:28 on domain   1:    0.17259 elapsed seconds
Timing for main: time 2012-10-29_12:00:28 on domain   1:    0.16757 elapsed seconds
Timing for main: time 2012-10-29_12:00:28 on domain   1:    0.16912 elapsed seconds
Timing for main: time 2012-10-29_12:00:28 on domain   1:    0.17124 elapsed seconds
Timing for main: time 2012-10-29_12:00:28 on domain   1:    0.16886 elapsed seconds
Timing for main: time 2012-10-29_12:00:29 on domain   1:    0.17075 elapsed seconds
Timing for main: time 2012-10-29_12:00:29 on domain   1:    0.17170 elapsed seconds
Timing for main: time 2012-10-29_12:00:29 on domain   1:    0.16988 elapsed seconds
Timing for main: time 2012-10-29_12:00:29 on domain   1:    0.16754 elapsed seconds
Timing for main: time 2012-10-29_12:00:29 on domain   1:    0.17105 elapsed seconds
Timing for main: time 2012-10-29_12:00:30 on domain   1:    0.16633 elapsed seconds
Timing for main: time 2012-10-29_12:00:30 on domain   1:    0.17062 elapsed seconds
Timing for main: time 2012-10-29_12:00:30 on domain   1:    0.16837 elapsed seconds
Timing for main: time 2012-10-29_12:00:30 on domain   1:    0.17010 elapsed seconds
Timing for main: time 2012-10-29_12:00:30 on domain   1:    0.17439 elapsed seconds
Timing for main: time 2012-10-29_12:00:31 on domain   1:    0.16851 elapsed seconds
Timing for main: time 2012-10-29_12:00:31 on domain   1:    0.16904 elapsed seconds
Timing for main: time 2012-10-29_12:00:31 on domain   1:    0.16758 elapsed seconds
Timing for main: time 2012-10-29_12:00:31 on domain   1:    0.17108 elapsed seconds
Timing for main: time 2012-10-29_12:00:31 on domain   1:    0.16832 elapsed seconds
Timing for main: time 2012-10-29_12:00:32 on domain   1:    0.16945 elapsed seconds
Timing for main: time 2012-10-29_12:00:32 on domain   1:    0.16945 elapsed seconds
Timing for main: time 2012-10-29_12:00:32 on domain   1:    0.17186 elapsed seconds
Timing for main: time 2012-10-29_12:00:32 on domain   1:    0.17073 elapsed seconds
Timing for main: time 2012-10-29_12:00:32 on domain   1:    0.16821 elapsed seconds
Timing for main: time 2012-10-29_12:00:33 on domain   1:    0.16851 elapsed seconds
Timing for main: time 2012-10-29_12:00:33 on domain   1:    0.17063 elapsed seconds
Timing for main: time 2012-10-29_12:00:33 on domain   1:    0.16673 elapsed seconds
Timing for main: time 2012-10-29_12:00:33 on domain   1:    0.16886 elapsed seconds
Timing for main: time 2012-10-29_12:00:33 on domain   1:    0.16895 elapsed seconds
Timing for main: time 2012-10-29_12:00:34 on domain   1:    0.16922 elapsed seconds
Timing for main: time 2012-10-29_12:00:34 on domain   1:    0.16916 elapsed seconds
Timing for main: time 2012-10-29_12:00:34 on domain   1:    0.17377 elapsed seconds
Timing for main: time 2012-10-29_12:00:34 on domain   1:    0.17312 elapsed seconds
Timing for main: time 2012-10-29_12:00:34 on domain   1:    0.16879 elapsed seconds
Timing for main: time 2012-10-29_12:00:35 on domain   1:    0.17434 elapsed seconds
Timing for main: time 2012-10-29_12:00:35 on domain   1:    0.16743 elapsed seconds
Timing for main: time 2012-10-29_12:00:35 on domain   1:    0.16952 elapsed seconds
Timing for main: time 2012-10-29_12:00:35 on domain   1:    0.16960 elapsed seconds
Timing for main: time 2012-10-29_12:00:35 on domain   1:    0.16996 elapsed seconds
Timing for main: time 2012-10-29_12:00:36 on domain   1:    0.16857 elapsed seconds
Timing for main: time 2012-10-29_12:00:36 on domain   1:    0.16965 elapsed seconds
Timing for main: time 2012-10-29_12:00:36 on domain   1:    0.17164 elapsed seconds
Timing for main: time 2012-10-29_12:00:36 on domain   1:    0.16640 elapsed seconds
Timing for main: time 2012-10-29_12:00:36 on domain   1:    0.16970 elapsed seconds
Timing for main: time 2012-10-29_12:00:37 on domain   1:    0.17402 elapsed seconds
Timing for main: time 2012-10-29_12:00:37 on domain   1:    0.16766 elapsed seconds
Timing for main: time 2012-10-29_12:00:37 on domain   1:    0.16660 elapsed seconds
Timing for main: time 2012-10-29_12:00:37 on domain   1:    0.17346 elapsed seconds
Timing for main: time 2012-10-29_12:00:37 on domain   1:    0.17003 elapsed seconds
Timing for main: time 2012-10-29_12:00:38 on domain   1:    0.17012 elapsed seconds
Timing for main: time 2012-10-29_12:00:38 on domain   1:    0.16918 elapsed seconds
Timing for main: time 2012-10-29_12:00:38 on domain   1:    0.17254 elapsed seconds
Timing for main: time 2012-10-29_12:00:38 on domain   1:    0.17038 elapsed seconds
Timing for main: time 2012-10-29_12:00:38 on domain   1:    0.17037 elapsed seconds
Timing for main: time 2012-10-29_12:00:39 on domain   1:    0.16702 elapsed seconds
Timing for main: time 2012-10-29_12:00:39 on domain   1:    0.17521 elapsed seconds
Timing for main: time 2012-10-29_12:00:39 on domain   1:    0.16626 elapsed seconds
Timing for main: time 2012-10-29_12:00:39 on domain   1:    0.17626 elapsed seconds
Timing for main: time 2012-10-29_12:00:39 on domain   1:    0.16779 elapsed seconds
Timing for main: time 2012-10-29_12:00:40 on domain   1:    0.17627 elapsed seconds
Timing for main: time 2012-10-29_12:00:40 on domain   1:    0.16780 elapsed seconds
Timing for main: time 2012-10-29_12:00:40 on domain   1:    0.17266 elapsed seconds
Timing for main: time 2012-10-29_12:00:40 on domain   1:    0.16681 elapsed seconds
Timing for main: time 2012-10-29_12:00:40 on domain   1:    0.16882 elapsed seconds
Timing for main: time 2012-10-29_12:00:41 on domain   1:    0.16840 elapsed seconds
Timing for main: time 2012-10-29_12:00:41 on domain   1:    0.16900 elapsed seconds
Timing for main: time 2012-10-29_12:00:41 on domain   1:    0.17047 elapsed seconds
Timing for main: time 2012-10-29_12:00:41 on domain   1:    0.16959 elapsed seconds
Timing for main: time 2012-10-29_12:00:41 on domain   1:    0.17016 elapsed seconds
Timing for main: time 2012-10-29_12:00:42 on domain   1:    0.16856 elapsed seconds
Timing for main: time 2012-10-29_12:00:42 on domain   1:    0.16925 elapsed seconds
Timing for main: time 2012-10-29_12:00:42 on domain   1:    0.16840 elapsed seconds
Timing for main: time 2012-10-29_12:00:42 on domain   1:    0.17012 elapsed seconds
Timing for main: time 2012-10-29_12:00:42 on domain   1:    0.16784 elapsed seconds
Timing for main: time 2012-10-29_12:00:43 on domain   1:    0.16915 elapsed seconds
Timing for main: time 2012-10-29_12:00:43 on domain   1:    0.16850 elapsed seconds
Timing for main: time 2012-10-29_12:00:43 on domain   1:    0.16905 elapsed seconds
Timing for main: time 2012-10-29_12:00:43 on domain   1:    0.16919 elapsed seconds
Timing for main: time 2012-10-29_12:00:43 on domain   1:    0.16854 elapsed seconds
Timing for main: time 2012-10-29_12:00:44 on domain   1:    0.17285 elapsed seconds
Timing for main: time 2012-10-29_12:00:44 on domain   1:    0.16788 elapsed seconds
Timing for main: time 2012-10-29_12:00:44 on domain   1:    0.16851 elapsed seconds
Timing for main: time 2012-10-29_12:00:44 on domain   1:    0.17988 elapsed seconds
Timing for main: time 2012-10-29_12:00:44 on domain   1:    0.16972 elapsed seconds
Timing for main: time 2012-10-29_12:00:45 on domain   1:    0.17199 elapsed seconds
Timing for main: time 2012-10-29_12:00:45 on domain   1:    0.17139 elapsed seconds
Timing for main: time 2012-10-29_12:00:45 on domain   1:    0.16797 elapsed seconds
Timing for main: time 2012-10-29_12:00:45 on domain   1:    0.16957 elapsed seconds
Timing for main: time 2012-10-29_12:00:45 on domain   1:    0.16981 elapsed seconds
Timing for main: time 2012-10-29_12:00:46 on domain   1:    0.17147 elapsed seconds
Timing for main: time 2012-10-29_12:00:46 on domain   1:    0.17076 elapsed seconds
Timing for main: time 2012-10-29_12:00:46 on domain   1:    0.16760 elapsed seconds
Timing for main: time 2012-10-29_12:00:46 on domain   1:    0.16734 elapsed seconds
Timing for main: time 2012-10-29_12:00:46 on domain   1:    0.16885 elapsed seconds
Timing for main: time 2012-10-29_12:00:47 on domain   1:    0.16875 elapsed seconds
Timing for main: time 2012-10-29_12:00:47 on domain   1:    0.16987 elapsed seconds
Timing for main: time 2012-10-29_12:00:47 on domain   1:    0.16903 elapsed seconds
Timing for main: time 2012-10-29_12:00:47 on domain   1:    0.16893 elapsed seconds
Timing for main: time 2012-10-29_12:00:47 on domain   1:    0.16937 elapsed seconds
Timing for main: time 2012-10-29_12:00:48 on domain   1:    0.16887 elapsed seconds
Timing for main: time 2012-10-29_12:00:48 on domain   1:    0.16939 elapsed seconds
Timing for main: time 2012-10-29_12:00:48 on domain   1:    0.16828 elapsed seconds
Timing for main: time 2012-10-29_12:00:48 on domain   1:    0.16913 elapsed seconds
Timing for main: time 2012-10-29_12:00:48 on domain   1:    0.17053 elapsed seconds
Timing for main: time 2012-10-29_12:00:49 on domain   1:    0.17342 elapsed seconds
Timing for main: time 2012-10-29_12:00:49 on domain   1:    0.16808 elapsed seconds
Timing for main: time 2012-10-29_12:00:49 on domain   1:    0.16781 elapsed seconds
Timing for main: time 2012-10-29_12:00:49 on domain   1:    0.16863 elapsed seconds
Timing for main: time 2012-10-29_12:00:49 on domain   1:    0.16927 elapsed seconds
Timing for main: time 2012-10-29_12:00:50 on domain   1:    0.16970 elapsed seconds
Timing for main: time 2012-10-29_12:00:50 on domain   1:    0.16973 elapsed seconds
Timing for main: time 2012-10-29_12:00:50 on domain   1:    0.16886 elapsed seconds
Timing for main: time 2012-10-29_12:00:50 on domain   1:    0.16944 elapsed seconds
Timing for main: time 2012-10-29_12:00:50 on domain   1:    0.16874 elapsed seconds
Timing for main: time 2012-10-29_12:00:51 on domain   1:    0.16891 elapsed seconds
Timing for main: time 2012-10-29_12:00:51 on domain   1:    0.17007 elapsed seconds
Timing for main: time 2012-10-29_12:00:51 on domain   1:    0.17171 elapsed seconds
Timing for main: time 2012-10-29_12:00:51 on domain   1:    0.16860 elapsed seconds
Timing for main: time 2012-10-29_12:00:51 on domain   1:    0.16911 elapsed seconds
Timing for main: time 2012-10-29_12:00:52 on domain   1:    0.16978 elapsed seconds
Timing for main: time 2012-10-29_12:00:52 on domain   1:    0.16994 elapsed seconds
Timing for main: time 2012-10-29_12:00:52 on domain   1:    0.17018 elapsed seconds
Timing for main: time 2012-10-29_12:00:52 on domain   1:    0.16965 elapsed seconds
Timing for main: time 2012-10-29_12:00:52 on domain   1:    0.16874 elapsed seconds
Timing for main: time 2012-10-29_12:00:53 on domain   1:    0.17013 elapsed seconds
Timing for main: time 2012-10-29_12:00:53 on domain   1:    0.17057 elapsed seconds
Timing for main: time 2012-10-29_12:00:53 on domain   1:    0.17916 elapsed seconds
Timing for main: time 2012-10-29_12:00:53 on domain   1:    0.16963 elapsed seconds
Timing for main: time 2012-10-29_12:00:53 on domain   1:    0.16993 elapsed seconds
Timing for main: time 2012-10-29_12:00:54 on domain   1:    0.17159 elapsed seconds
Timing for main: time 2012-10-29_12:00:54 on domain   1:    0.16812 elapsed seconds
Timing for main: time 2012-10-29_12:00:54 on domain   1:    0.16875 elapsed seconds
Timing for main: time 2012-10-29_12:00:54 on domain   1:    0.16899 elapsed seconds
Timing for main: time 2012-10-29_12:00:54 on domain   1:    0.16887 elapsed seconds
Timing for main: time 2012-10-29_12:00:55 on domain   1:    0.16798 elapsed seconds
Timing for main: time 2012-10-29_12:00:55 on domain   1:    0.16849 elapsed seconds
Timing for main: time 2012-10-29_12:00:55 on domain   1:    0.16977 elapsed seconds
Timing for main: time 2012-10-29_12:00:55 on domain   1:    0.17173 elapsed seconds
Timing for main: time 2012-10-29_12:00:55 on domain   1:    0.16893 elapsed seconds
Timing for main: time 2012-10-29_12:00:56 on domain   1:    0.16968 elapsed seconds
Timing for main: time 2012-10-29_12:00:56 on domain   1:    0.16896 elapsed seconds
Timing for main: time 2012-10-29_12:00:56 on domain   1:    0.17011 elapsed seconds
Timing for main: time 2012-10-29_12:00:56 on domain   1:    0.17206 elapsed seconds
Timing for main: time 2012-10-29_12:00:56 on domain   1:    0.16907 elapsed seconds
Timing for main: time 2012-10-29_12:00:57 on domain   1:    0.16882 elapsed seconds
Timing for main: time 2012-10-29_12:00:57 on domain   1:    0.16812 elapsed seconds
Timing for main: time 2012-10-29_12:00:57 on domain   1:    0.16867 elapsed seconds
Timing for main: time 2012-10-29_12:00:57 on domain   1:    0.16835 elapsed seconds
Timing for main: time 2012-10-29_12:00:57 on domain   1:    0.16938 elapsed seconds
Timing for main: time 2012-10-29_12:00:58 on domain   1:    0.17158 elapsed seconds
Timing for main: time 2012-10-29_12:00:58 on domain   1:    0.16908 elapsed seconds
Timing for main: time 2012-10-29_12:00:58 on domain   1:    0.16832 elapsed seconds
Timing for main: time 2012-10-29_12:00:58 on domain   1:    0.17277 elapsed seconds
Timing for main: time 2012-10-29_12:00:58 on domain   1:    0.16864 elapsed seconds
Timing for main: time 2012-10-29_12:00:59 on domain   1:    0.16937 elapsed seconds
Timing for main: time 2012-10-29_12:00:59 on domain   1:    0.16786 elapsed seconds
Timing for main: time 2012-10-29_12:00:59 on domain   1:    0.17044 elapsed seconds
Timing for main: time 2012-10-29_12:00:59 on domain   1:    0.16870 elapsed seconds
Timing for main: time 2012-10-29_12:00:59 on domain   1:    0.17096 elapsed seconds
Timing for main: time 2012-10-29_12:01:00 on domain   1:    0.16873 elapsed seconds
Timing for main: time 2012-10-29_12:01:00 on domain   1:    0.33645 elapsed seconds
Timing for main: time 2012-10-29_12:01:00 on domain   1:    0.17259 elapsed seconds
Timing for main: time 2012-10-29_12:01:00 on domain   1:    0.17149 elapsed seconds
Timing for main: time 2012-10-29_12:01:00 on domain   1:    0.16829 elapsed seconds
Timing for main: time 2012-10-29_12:01:01 on domain   1:    0.16797 elapsed seconds
Timing for main: time 2012-10-29_12:01:01 on domain   1:    0.16891 elapsed seconds
Timing for main: time 2012-10-29_12:01:01 on domain   1:    0.16791 elapsed seconds
Timing for main: time 2012-10-29_12:01:01 on domain   1:    0.16287 elapsed seconds
Timing for main: time 2012-10-29_12:01:01 on domain   1:    0.16805 elapsed seconds
Timing for main: time 2012-10-29_12:01:02 on domain   1:    0.17235 elapsed seconds
Timing for main: time 2012-10-29_12:01:02 on domain   1:    0.16750 elapsed seconds
Timing for main: time 2012-10-29_12:01:02 on domain   1:    0.17080 elapsed seconds
Timing for main: time 2012-10-29_12:01:02 on domain   1:    0.16773 elapsed seconds
Timing for main: time 2012-10-29_12:01:02 on domain   1:    0.16860 elapsed seconds
Timing for main: time 2012-10-29_12:01:03 on domain   1:    0.17269 elapsed seconds
Timing for main: time 2012-10-29_12:01:03 on domain   1:    0.16805 elapsed seconds
Timing for main: time 2012-10-29_12:01:03 on domain   1:    0.17050 elapsed seconds
Timing for main: time 2012-10-29_12:01:03 on domain   1:    0.16959 elapsed seconds
Timing for main: time 2012-10-29_12:01:03 on domain   1:    0.16867 elapsed seconds
Timing for main: time 2012-10-29_12:01:04 on domain   1:    0.17057 elapsed seconds
Timing for main: time 2012-10-29_12:01:04 on domain   1:    0.16981 elapsed seconds
Timing for main: time 2012-10-29_12:01:04 on domain   1:    0.16799 elapsed seconds
Timing for main: time 2012-10-29_12:01:04 on domain   1:    0.16832 elapsed seconds
Timing for main: time 2012-10-29_12:01:04 on domain   1:    0.16821 elapsed seconds
Timing for main: time 2012-10-29_12:01:05 on domain   1:    0.16789 elapsed seconds
Timing for main: time 2012-10-29_12:01:05 on domain   1:    0.16867 elapsed seconds
Timing for main: time 2012-10-29_12:01:05 on domain   1:    0.17211 elapsed seconds
Timing for main: time 2012-10-29_12:01:05 on domain   1:    0.16839 elapsed seconds
Timing for main: time 2012-10-29_12:01:05 on domain   1:    0.16904 elapsed seconds
Timing for main: time 2012-10-29_12:01:06 on domain   1:    0.16791 elapsed seconds
Timing for main: time 2012-10-29_12:01:06 on domain   1:    0.17647 elapsed seconds
Timing for main: time 2012-10-29_12:01:06 on domain   1:    0.16828 elapsed seconds
Timing for main: time 2012-10-29_12:01:06 on domain   1:    0.16846 elapsed seconds
Timing for main: time 2012-10-29_12:01:06 on domain   1:    0.16874 elapsed seconds
Timing for main: time 2012-10-29_12:01:07 on domain   1:    0.17131 elapsed seconds
Timing for main: time 2012-10-29_12:01:07 on domain   1:    0.16923 elapsed seconds
Timing for main: time 2012-10-29_12:01:07 on domain   1:    0.16833 elapsed seconds
Timing for main: time 2012-10-29_12:01:07 on domain   1:    0.17277 elapsed seconds
Timing for main: time 2012-10-29_12:01:07 on domain   1:    0.17320 elapsed seconds
Timing for main: time 2012-10-29_12:01:08 on domain   1:    0.16833 elapsed seconds
Timing for main: time 2012-10-29_12:01:08 on domain   1:    0.16804 elapsed seconds
Timing for main: time 2012-10-29_12:01:08 on domain   1:    0.16877 elapsed seconds
Timing for main: time 2012-10-29_12:01:08 on domain   1:    0.16811 elapsed seconds
Timing for main: time 2012-10-29_12:01:08 on domain   1:    0.16823 elapsed seconds
Timing for main: time 2012-10-29_12:01:09 on domain   1:    0.16935 elapsed seconds
Timing for main: time 2012-10-29_12:01:09 on domain   1:    0.17304 elapsed seconds
Timing for main: time 2012-10-29_12:01:09 on domain   1:    0.16952 elapsed seconds
Timing for main: time 2012-10-29_12:01:09 on domain   1:    0.16814 elapsed seconds
Timing for main: time 2012-10-29_12:01:09 on domain   1:    0.16745 elapsed seconds
Timing for main: time 2012-10-29_12:01:10 on domain   1:    0.16870 elapsed seconds
Timing for main: time 2012-10-29_12:01:10 on domain   1:    0.16816 elapsed seconds
Timing for main: time 2012-10-29_12:01:10 on domain   1:    0.16852 elapsed seconds
Timing for main: time 2012-10-29_12:01:10 on domain   1:    0.16773 elapsed seconds
Timing for main: time 2012-10-29_12:01:10 on domain   1:    0.16791 elapsed seconds
Timing for main: time 2012-10-29_12:01:11 on domain   1:    0.16838 elapsed seconds
Timing for main: time 2012-10-29_12:01:11 on domain   1:    0.17471 elapsed seconds
Timing for main: time 2012-10-29_12:01:11 on domain   1:    0.17482 elapsed seconds
Timing for main: time 2012-10-29_12:01:11 on domain   1:    0.16852 elapsed seconds
Timing for main: time 2012-10-29_12:01:11 on domain   1:    0.16795 elapsed seconds
Timing for main: time 2012-10-29_12:01:12 on domain   1:    0.16886 elapsed seconds
Timing for main: time 2012-10-29_12:01:12 on domain   1:    0.16691 elapsed seconds
Timing for main: time 2012-10-29_12:01:12 on domain   1:    0.16908 elapsed seconds
Timing for main: time 2012-10-29_12:01:12 on domain   1:    0.17176 elapsed seconds
Timing for main: time 2012-10-29_12:01:12 on domain   1:    0.16903 elapsed seconds
Timing for main: time 2012-10-29_12:01:13 on domain   1:    0.16941 elapsed seconds
Timing for main: time 2012-10-29_12:01:13 on domain   1:    0.16885 elapsed seconds
Timing for main: time 2012-10-29_12:01:13 on domain   1:    0.16939 elapsed seconds
Timing for main: time 2012-10-29_12:01:13 on domain   1:    0.16894 elapsed seconds
Timing for main: time 2012-10-29_12:01:13 on domain   1:    0.17239 elapsed seconds
Timing for main: time 2012-10-29_12:01:14 on domain   1:    0.16805 elapsed seconds
Timing for main: time 2012-10-29_12:01:14 on domain   1:    0.16822 elapsed seconds
Timing for main: time 2012-10-29_12:01:14 on domain   1:    0.16801 elapsed seconds
Timing for main: time 2012-10-29_12:01:14 on domain   1:    0.17113 elapsed seconds
Timing for main: time 2012-10-29_12:01:14 on domain   1:    0.16981 elapsed seconds
Timing for main: time 2012-10-29_12:01:15 on domain   1:    0.16965 elapsed seconds
Timing for main: time 2012-10-29_12:01:15 on domain   1:    0.16996 elapsed seconds
Timing for main: time 2012-10-29_12:01:15 on domain   1:    0.16884 elapsed seconds
Timing for main: time 2012-10-29_12:01:15 on domain   1:    0.16821 elapsed seconds
Timing for main: time 2012-10-29_12:01:15 on domain   1:    0.17267 elapsed seconds
Timing for main: time 2012-10-29_12:01:16 on domain   1:    0.16830 elapsed seconds
Timing for main: time 2012-10-29_12:01:16 on domain   1:    0.16856 elapsed seconds
Timing for main: time 2012-10-29_12:01:16 on domain   1:    0.16878 elapsed seconds
Timing for main: time 2012-10-29_12:01:16 on domain   1:    0.16968 elapsed seconds
Timing for main: time 2012-10-29_12:01:16 on domain   1:    0.16877 elapsed seconds
Timing for main: time 2012-10-29_12:01:17 on domain   1:    0.16859 elapsed seconds
Timing for main: time 2012-10-29_12:01:17 on domain   1:    0.17040 elapsed seconds
Timing for main: time 2012-10-29_12:01:17 on domain   1:    0.16749 elapsed seconds
Timing for main: time 2012-10-29_12:01:17 on domain   1:    0.17122 elapsed seconds
Timing for main: time 2012-10-29_12:01:17 on domain   1:    0.17063 elapsed seconds
Timing for main: time 2012-10-29_12:01:18 on domain   1:    0.16811 elapsed seconds
Timing for main: time 2012-10-29_12:01:18 on domain   1:    0.16882 elapsed seconds
Timing for main: time 2012-10-29_12:01:18 on domain   1:    0.16798 elapsed seconds
Timing for main: time 2012-10-29_12:01:18 on domain   1:    0.16994 elapsed seconds
Timing for main: time 2012-10-29_12:01:18 on domain   1:    0.16767 elapsed seconds
Timing for main: time 2012-10-29_12:01:19 on domain   1:    0.17055 elapsed seconds
Timing for main: time 2012-10-29_12:01:19 on domain   1:    0.16954 elapsed seconds
Timing for main: time 2012-10-29_12:01:19 on domain   1:    0.16832 elapsed seconds
Timing for main: time 2012-10-29_12:01:19 on domain   1:    0.16842 elapsed seconds
Timing for main: time 2012-10-29_12:01:19 on domain   1:    0.17263 elapsed seconds
Timing for main: time 2012-10-29_12:01:20 on domain   1:    0.17270 elapsed seconds
Timing for main: time 2012-10-29_12:01:20 on domain   1:    0.16751 elapsed seconds
Timing for main: time 2012-10-29_12:01:20 on domain   1:    0.16908 elapsed seconds
Timing for main: time 2012-10-29_12:01:20 on domain   1:    0.16773 elapsed seconds
Timing for main: time 2012-10-29_12:01:20 on domain   1:    0.17084 elapsed seconds
Timing for main: time 2012-10-29_12:01:21 on domain   1:    0.16802 elapsed seconds
Timing for main: time 2012-10-29_12:01:21 on domain   1:    0.16744 elapsed seconds
Timing for main: time 2012-10-29_12:01:21 on domain   1:    0.16795 elapsed seconds
Timing for main: time 2012-10-29_12:01:21 on domain   1:    0.17138 elapsed seconds
Timing for main: time 2012-10-29_12:01:21 on domain   1:    0.17167 elapsed seconds
Timing for main: time 2012-10-29_12:01:22 on domain   1:    0.16840 elapsed seconds
Timing for main: time 2012-10-29_12:01:22 on domain   1:    0.17258 elapsed seconds
Timing for main: time 2012-10-29_12:01:22 on domain   1:    0.16826 elapsed seconds
Timing for main: time 2012-10-29_12:01:22 on domain   1:    0.17132 elapsed seconds
Timing for main: time 2012-10-29_12:01:22 on domain   1:    0.16781 elapsed seconds
Timing for main: time 2012-10-29_12:01:23 on domain   1:    0.16815 elapsed seconds
Timing for main: time 2012-10-29_12:01:23 on domain   1:    0.16901 elapsed seconds
Timing for main: time 2012-10-29_12:01:23 on domain   1:    0.16801 elapsed seconds
Timing for main: time 2012-10-29_12:01:23 on domain   1:    0.16760 elapsed seconds
Timing for main: time 2012-10-29_12:01:23 on domain   1:    0.16867 elapsed seconds
Timing for main: time 2012-10-29_12:01:24 on domain   1:    0.16861 elapsed seconds
Timing for main: time 2012-10-29_12:01:24 on domain   1:    0.16832 elapsed seconds
Timing for main: time 2012-10-29_12:01:24 on domain   1:    0.17183 elapsed seconds
Timing for main: time 2012-10-29_12:01:24 on domain   1:    0.16820 elapsed seconds
Timing for main: time 2012-10-29_12:01:24 on domain   1:    0.16697 elapsed seconds
Timing for main: time 2012-10-29_12:01:25 on domain   1:    0.17110 elapsed seconds
Timing for main: time 2012-10-29_12:01:25 on domain   1:    0.16781 elapsed seconds
Timing for main: time 2012-10-29_12:01:25 on domain   1:    0.16855 elapsed seconds
Timing for main: time 2012-10-29_12:01:25 on domain   1:    0.16978 elapsed seconds
Timing for main: time 2012-10-29_12:01:25 on domain   1:    0.16866 elapsed seconds
Timing for main: time 2012-10-29_12:01:26 on domain   1:    0.17072 elapsed seconds
Timing for main: time 2012-10-29_12:01:26 on domain   1:    0.16828 elapsed seconds
Timing for main: time 2012-10-29_12:01:26 on domain   1:    0.17116 elapsed seconds
Timing for main: time 2012-10-29_12:01:26 on domain   1:    0.16824 elapsed seconds
Timing for main: time 2012-10-29_12:01:26 on domain   1:    0.16955 elapsed seconds
Timing for main: time 2012-10-29_12:01:27 on domain   1:    0.16785 elapsed seconds
Timing for main: time 2012-10-29_12:01:27 on domain   1:    0.16796 elapsed seconds
Timing for main: time 2012-10-29_12:01:27 on domain   1:    0.16813 elapsed seconds
Timing for main: time 2012-10-29_12:01:27 on domain   1:    0.16850 elapsed seconds
Timing for main: time 2012-10-29_12:01:27 on domain   1:    0.16926 elapsed seconds
Timing for main: time 2012-10-29_12:01:28 on domain   1:    0.16998 elapsed seconds
Timing for main: time 2012-10-29_12:01:28 on domain   1:    0.16844 elapsed seconds
Timing for main: time 2012-10-29_12:01:28 on domain   1:    0.17462 elapsed seconds
Timing for main: time 2012-10-29_12:01:28 on domain   1:    0.16867 elapsed seconds
Timing for main: time 2012-10-29_12:01:28 on domain   1:    0.16772 elapsed seconds
Timing for main: time 2012-10-29_12:01:29 on domain   1:    0.17335 elapsed seconds
Timing for main: time 2012-10-29_12:01:29 on domain   1:    0.16795 elapsed seconds
Timing for main: time 2012-10-29_12:01:29 on domain   1:    0.17107 elapsed seconds
Timing for main: time 2012-10-29_12:01:29 on domain   1:    0.17344 elapsed seconds
Timing for main: time 2012-10-29_12:01:29 on domain   1:    0.16765 elapsed seconds
Timing for main: time 2012-10-29_12:01:30 on domain   1:    0.16886 elapsed seconds
Timing for main: time 2012-10-29_12:01:30 on domain   1:    0.17250 elapsed seconds
Timing for main: time 2012-10-29_12:01:30 on domain   1:    0.16871 elapsed seconds
Timing for main: time 2012-10-29_12:01:30 on domain   1:    0.17126 elapsed seconds
Timing for main: time 2012-10-29_12:01:30 on domain   1:    0.17266 elapsed seconds
Timing for main: time 2012-10-29_12:01:31 on domain   1:    0.16839 elapsed seconds
Timing for main: time 2012-10-29_12:01:31 on domain   1:    0.16843 elapsed seconds
Timing for main: time 2012-10-29_12:01:31 on domain   1:    0.16773 elapsed seconds
Timing for main: time 2012-10-29_12:01:31 on domain   1:    0.16821 elapsed seconds
Timing for main: time 2012-10-29_12:01:31 on domain   1:    0.16781 elapsed seconds
Timing for main: time 2012-10-29_12:01:32 on domain   1:    0.17093 elapsed seconds
Timing for main: time 2012-10-29_12:01:32 on domain   1:    0.16841 elapsed seconds
Timing for main: time 2012-10-29_12:01:32 on domain   1:    0.16884 elapsed seconds
Timing for main: time 2012-10-29_12:01:32 on domain   1:    0.16941 elapsed seconds
Timing for main: time 2012-10-29_12:01:32 on domain   1:    0.17031 elapsed seconds
Timing for main: time 2012-10-29_12:01:33 on domain   1:    0.16888 elapsed seconds
Timing for main: time 2012-10-29_12:01:33 on domain   1:    0.16776 elapsed seconds
Timing for main: time 2012-10-29_12:01:33 on domain   1:    0.16830 elapsed seconds
Timing for main: time 2012-10-29_12:01:33 on domain   1:    0.17112 elapsed seconds
Timing for main: time 2012-10-29_12:01:33 on domain   1:    0.16891 elapsed seconds
Timing for main: time 2012-10-29_12:01:34 on domain   1:    0.16823 elapsed seconds
Timing for main: time 2012-10-29_12:01:34 on domain   1:    0.16678 elapsed seconds
Timing for main: time 2012-10-29_12:01:34 on domain   1:    0.17384 elapsed seconds
Timing for main: time 2012-10-29_12:01:34 on domain   1:    0.16876 elapsed seconds
Timing for main: time 2012-10-29_12:01:34 on domain   1:    0.16812 elapsed seconds
Timing for main: time 2012-10-29_12:01:35 on domain   1:    0.16909 elapsed seconds
Timing for main: time 2012-10-29_12:01:35 on domain   1:    0.16787 elapsed seconds
Timing for main: time 2012-10-29_12:01:35 on domain   1:    0.17046 elapsed seconds
Timing for main: time 2012-10-29_12:01:35 on domain   1:    0.17065 elapsed seconds
Timing for main: time 2012-10-29_12:01:35 on domain   1:    0.16897 elapsed seconds
Timing for main: time 2012-10-29_12:01:36 on domain   1:    0.16717 elapsed seconds
Timing for main: time 2012-10-29_12:01:36 on domain   1:    0.16860 elapsed seconds
Timing for main: time 2012-10-29_12:01:36 on domain   1:    0.16825 elapsed seconds
Timing for main: time 2012-10-29_12:01:36 on domain   1:    0.17298 elapsed seconds
Timing for main: time 2012-10-29_12:01:36 on domain   1:    0.16880 elapsed seconds
Timing for main: time 2012-10-29_12:01:37 on domain   1:    0.16877 elapsed seconds
Timing for main: time 2012-10-29_12:01:37 on domain   1:    0.16852 elapsed seconds
Timing for main: time 2012-10-29_12:01:37 on domain   1:    0.16702 elapsed seconds
Timing for main: time 2012-10-29_12:01:37 on domain   1:    0.16796 elapsed seconds
Timing for main: time 2012-10-29_12:01:37 on domain   1:    0.16766 elapsed seconds
Timing for main: time 2012-10-29_12:01:38 on domain   1:    0.16291 elapsed seconds
Timing for main: time 2012-10-29_12:01:38 on domain   1:    0.16252 elapsed seconds
Timing for main: time 2012-10-29_12:01:38 on domain   1:    0.16787 elapsed seconds
Timing for main: time 2012-10-29_12:01:38 on domain   1:    0.16779 elapsed seconds
Timing for main: time 2012-10-29_12:01:38 on domain   1:    0.16477 elapsed seconds
Timing for main: time 2012-10-29_12:01:39 on domain   1:    0.16688 elapsed seconds
Timing for main: time 2012-10-29_12:01:39 on domain   1:    0.16462 elapsed seconds
Timing for main: time 2012-10-29_12:01:39 on domain   1:    0.16443 elapsed seconds
Timing for main: time 2012-10-29_12:01:39 on domain   1:    0.17250 elapsed seconds
Timing for main: time 2012-10-29_12:01:39 on domain   1:    0.16637 elapsed seconds
Timing for main: time 2012-10-29_12:01:40 on domain   1:    0.16513 elapsed seconds
Timing for main: time 2012-10-29_12:01:40 on domain   1:    0.16927 elapsed seconds
Timing for main: time 2012-10-29_12:01:40 on domain   1:    0.16811 elapsed seconds
Timing for main: time 2012-10-29_12:01:40 on domain   1:    0.16781 elapsed seconds
Timing for main: time 2012-10-29_12:01:40 on domain   1:    0.16422 elapsed seconds
Timing for main: time 2012-10-29_12:01:41 on domain   1:    0.16782 elapsed seconds
Timing for main: time 2012-10-29_12:01:41 on domain   1:    0.16524 elapsed seconds
Timing for main: time 2012-10-29_12:01:41 on domain   1:    0.16310 elapsed seconds
Timing for main: time 2012-10-29_12:01:41 on domain   1:    0.16754 elapsed seconds
Timing for main: time 2012-10-29_12:01:41 on domain   1:    0.16840 elapsed seconds
Timing for main: time 2012-10-29_12:01:42 on domain   1:    0.16634 elapsed seconds
Timing for main: time 2012-10-29_12:01:42 on domain   1:    0.16536 elapsed seconds
Timing for main: time 2012-10-29_12:01:42 on domain   1:    0.17070 elapsed seconds
Timing for main: time 2012-10-29_12:01:42 on domain   1:    0.16709 elapsed seconds
Timing for main: time 2012-10-29_12:01:42 on domain   1:    0.16719 elapsed seconds
Timing for main: time 2012-10-29_12:01:43 on domain   1:    0.16481 elapsed seconds
Timing for main: time 2012-10-29_12:01:43 on domain   1:    0.16610 elapsed seconds
Timing for main: time 2012-10-29_12:01:43 on domain   1:    0.16557 elapsed seconds
Timing for main: time 2012-10-29_12:01:43 on domain   1:    0.16842 elapsed seconds
Timing for main: time 2012-10-29_12:01:43 on domain   1:    0.16942 elapsed seconds
Timing for main: time 2012-10-29_12:01:44 on domain   1:    0.16658 elapsed seconds
Timing for main: time 2012-10-29_12:01:44 on domain   1:    0.16921 elapsed seconds
Timing for main: time 2012-10-29_12:01:44 on domain   1:    0.16204 elapsed seconds
Timing for main: time 2012-10-29_12:01:44 on domain   1:    0.16894 elapsed seconds
Timing for main: time 2012-10-29_12:01:44 on domain   1:    0.16566 elapsed seconds
Timing for main: time 2012-10-29_12:01:45 on domain   1:    0.16664 elapsed seconds
Timing for main: time 2012-10-29_12:01:45 on domain   1:    0.16454 elapsed seconds
Timing for main: time 2012-10-29_12:01:45 on domain   1:    0.16786 elapsed seconds
Timing for main: time 2012-10-29_12:01:45 on domain   1:    0.16632 elapsed seconds
Timing for main: time 2012-10-29_12:01:45 on domain   1:    0.16491 elapsed seconds
Timing for main: time 2012-10-29_12:01:46 on domain   1:    0.17047 elapsed seconds
Timing for main: time 2012-10-29_12:01:46 on domain   1:    0.16406 elapsed seconds
Timing for main: time 2012-10-29_12:01:46 on domain   1:    0.16613 elapsed seconds
Timing for main: time 2012-10-29_12:01:46 on domain   1:    0.16865 elapsed seconds
Timing for main: time 2012-10-29_12:01:46 on domain   1:    0.16581 elapsed seconds
Timing for main: time 2012-10-29_12:01:47 on domain   1:    0.16609 elapsed seconds
Timing for main: time 2012-10-29_12:01:47 on domain   1:    0.16298 elapsed seconds
Timing for main: time 2012-10-29_12:01:47 on domain   1:    0.16842 elapsed seconds
Timing for main: time 2012-10-29_12:01:47 on domain   1:    0.17230 elapsed seconds
Timing for main: time 2012-10-29_12:01:47 on domain   1:    0.16262 elapsed seconds
Timing for main: time 2012-10-29_12:01:48 on domain   1:    0.16646 elapsed seconds
Timing for main: time 2012-10-29_12:01:48 on domain   1:    0.16362 elapsed seconds
Timing for main: time 2012-10-29_12:01:48 on domain   1:    0.16595 elapsed seconds
Timing for main: time 2012-10-29_12:01:48 on domain   1:    0.16450 elapsed seconds
Timing for main: time 2012-10-29_12:01:48 on domain   1:    0.16808 elapsed seconds
Timing for main: time 2012-10-29_12:01:49 on domain   1:    0.16445 elapsed seconds
Timing for main: time 2012-10-29_12:01:49 on domain   1:    0.16913 elapsed seconds
Timing for main: time 2012-10-29_12:01:49 on domain   1:    0.16957 elapsed seconds
Timing for main: time 2012-10-29_12:01:49 on domain   1:    0.16608 elapsed seconds
Timing for main: time 2012-10-29_12:01:49 on domain   1:    0.17102 elapsed seconds
Timing for main: time 2012-10-29_12:01:50 on domain   1:    0.16280 elapsed seconds
Timing for main: time 2012-10-29_12:01:50 on domain   1:    0.16817 elapsed seconds
Timing for main: time 2012-10-29_12:01:50 on domain   1:    0.16686 elapsed seconds
Timing for main: time 2012-10-29_12:01:50 on domain   1:    0.16905 elapsed seconds
Timing for main: time 2012-10-29_12:01:50 on domain   1:    0.17167 elapsed seconds
Timing for main: time 2012-10-29_12:01:51 on domain   1:    0.16527 elapsed seconds
Timing for main: time 2012-10-29_12:01:51 on domain   1:    0.16630 elapsed seconds
Timing for main: time 2012-10-29_12:01:51 on domain   1:    0.16498 elapsed seconds
Timing for main: time 2012-10-29_12:01:51 on domain   1:    0.16603 elapsed seconds
Timing for main: time 2012-10-29_12:01:51 on domain   1:    0.16899 elapsed seconds
Timing for main: time 2012-10-29_12:01:52 on domain   1:    0.16659 elapsed seconds
Timing for main: time 2012-10-29_12:01:52 on domain   1:    0.16815 elapsed seconds
Timing for main: time 2012-10-29_12:01:52 on domain   1:    0.17085 elapsed seconds
Timing for main: time 2012-10-29_12:01:52 on domain   1:    0.16339 elapsed seconds
Timing for main: time 2012-10-29_12:01:52 on domain   1:    0.16568 elapsed seconds
Timing for main: time 2012-10-29_12:01:53 on domain   1:    0.16546 elapsed seconds
Timing for main: time 2012-10-29_12:01:53 on domain   1:    0.16486 elapsed seconds
Timing for main: time 2012-10-29_12:01:53 on domain   1:    0.17213 elapsed seconds
Timing for main: time 2012-10-29_12:01:53 on domain   1:    0.16391 elapsed seconds
Timing for main: time 2012-10-29_12:01:53 on domain   1:    0.16497 elapsed seconds
Timing for main: time 2012-10-29_12:01:54 on domain   1:    0.17246 elapsed seconds
Timing for main: time 2012-10-29_12:01:54 on domain   1:    0.16280 elapsed seconds
Timing for main: time 2012-10-29_12:01:54 on domain   1:    0.16475 elapsed seconds
Timing for main: time 2012-10-29_12:01:54 on domain   1:    0.16526 elapsed seconds
Timing for main: time 2012-10-29_12:01:54 on domain   1:    0.17068 elapsed seconds
Timing for main: time 2012-10-29_12:01:55 on domain   1:    0.16767 elapsed seconds
Timing for main: time 2012-10-29_12:01:55 on domain   1:    0.16828 elapsed seconds
Timing for main: time 2012-10-29_12:01:55 on domain   1:    0.16428 elapsed seconds
Timing for main: time 2012-10-29_12:01:55 on domain   1:    0.16439 elapsed seconds
Timing for main: time 2012-10-29_12:01:55 on domain   1:    0.16783 elapsed seconds
Timing for main: time 2012-10-29_12:01:56 on domain   1:    0.16618 elapsed seconds
Timing for main: time 2012-10-29_12:01:56 on domain   1:    0.16734 elapsed seconds
Timing for main: time 2012-10-29_12:01:56 on domain   1:    0.16792 elapsed seconds
Timing for main: time 2012-10-29_12:01:56 on domain   1:    0.17213 elapsed seconds
Timing for main: time 2012-10-29_12:01:56 on domain   1:    0.16446 elapsed seconds
Timing for main: time 2012-10-29_12:01:57 on domain   1:    0.16289 elapsed seconds
Timing for main: time 2012-10-29_12:01:57 on domain   1:    0.16503 elapsed seconds
Timing for main: time 2012-10-29_12:01:57 on domain   1:    0.16508 elapsed seconds
Timing for main: time 2012-10-29_12:01:57 on domain   1:    0.16703 elapsed seconds
Timing for main: time 2012-10-29_12:01:57 on domain   1:    0.16489 elapsed seconds
Timing for main: time 2012-10-29_12:01:58 on domain   1:    0.17048 elapsed seconds
Timing for main: time 2012-10-29_12:01:58 on domain   1:    0.16237 elapsed seconds
Timing for main: time 2012-10-29_12:01:58 on domain   1:    0.16795 elapsed seconds
Timing for main: time 2012-10-29_12:01:58 on domain   1:    0.16786 elapsed seconds
Timing for main: time 2012-10-29_12:01:58 on domain   1:    0.16894 elapsed seconds
Timing for main: time 2012-10-29_12:01:59 on domain   1:    0.17189 elapsed seconds
Timing for main: time 2012-10-29_12:01:59 on domain   1:    0.16316 elapsed seconds
Timing for main: time 2012-10-29_12:01:59 on domain   1:    0.16919 elapsed seconds
Timing for main: time 2012-10-29_12:01:59 on domain   1:    0.16349 elapsed seconds
Timing for main: time 2012-10-29_12:01:59 on domain   1:    0.17172 elapsed seconds
Timing for main: time 2012-10-29_12:02:00 on domain   1:    0.17403 elapsed seconds
Timing for main: time 2012-10-29_12:02:00 on domain   1:    0.28100 elapsed seconds
Timing for main: time 2012-10-29_12:02:00 on domain   1:    0.16694 elapsed seconds
Timing for main: time 2012-10-29_12:02:00 on domain   1:    0.16710 elapsed seconds
Timing for main: time 2012-10-29_12:02:00 on domain   1:    0.17171 elapsed seconds
Timing for main: time 2012-10-29_12:02:01 on domain   1:    0.16328 elapsed seconds
Timing for main: time 2012-10-29_12:02:01 on domain   1:    0.17170 elapsed seconds
Timing for main: time 2012-10-29_12:02:01 on domain   1:    0.16383 elapsed seconds
Timing for main: time 2012-10-29_12:02:01 on domain   1:    0.16870 elapsed seconds
Timing for main: time 2012-10-29_12:02:01 on domain   1:    0.16338 elapsed seconds
Timing for main: time 2012-10-29_12:02:02 on domain   1:    0.16415 elapsed seconds
Timing for main: time 2012-10-29_12:02:02 on domain   1:    0.16994 elapsed seconds
Timing for main: time 2012-10-29_12:02:02 on domain   1:    0.16620 elapsed seconds
Timing for main: time 2012-10-29_12:02:02 on domain   1:    0.16830 elapsed seconds
Timing for main: time 2012-10-29_12:02:02 on domain   1:    0.16659 elapsed seconds
Timing for main: time 2012-10-29_12:02:03 on domain   1:    0.17191 elapsed seconds
Timing for main: time 2012-10-29_12:02:03 on domain   1:    0.16893 elapsed seconds
Timing for main: time 2012-10-29_12:02:03 on domain   1:    0.16472 elapsed seconds
Timing for main: time 2012-10-29_12:02:03 on domain   1:    0.16520 elapsed seconds
Timing for main: time 2012-10-29_12:02:03 on domain   1:    0.16786 elapsed seconds
Timing for main: time 2012-10-29_12:02:04 on domain   1:    0.17227 elapsed seconds
Timing for main: time 2012-10-29_12:02:04 on domain   1:    0.16586 elapsed seconds
Timing for main: time 2012-10-29_12:02:04 on domain   1:    0.16593 elapsed seconds
Timing for main: time 2012-10-29_12:02:04 on domain   1:    0.16565 elapsed seconds
Timing for main: time 2012-10-29_12:02:04 on domain   1:    0.16854 elapsed seconds
Timing for main: time 2012-10-29_12:02:05 on domain   1:    0.16235 elapsed seconds
Timing for main: time 2012-10-29_12:02:05 on domain   1:    0.16864 elapsed seconds
Timing for main: time 2012-10-29_12:02:05 on domain   1:    0.16718 elapsed seconds
Timing for main: time 2012-10-29_12:02:05 on domain   1:    0.16495 elapsed seconds
Timing for main: time 2012-10-29_12:02:05 on domain   1:    0.16553 elapsed seconds
Timing for main: time 2012-10-29_12:02:06 on domain   1:    0.16948 elapsed seconds
Timing for main: time 2012-10-29_12:02:06 on domain   1:    0.16635 elapsed seconds
Timing for main: time 2012-10-29_12:02:06 on domain   1:    0.16397 elapsed seconds
Timing for main: time 2012-10-29_12:02:06 on domain   1:    0.17199 elapsed seconds
Timing for main: time 2012-10-29_12:02:06 on domain   1:    0.16442 elapsed seconds
Timing for main: time 2012-10-29_12:02:07 on domain   1:    0.17278 elapsed seconds
Timing for main: time 2012-10-29_12:02:07 on domain   1:    0.16552 elapsed seconds
Timing for main: time 2012-10-29_12:02:07 on domain   1:    0.16726 elapsed seconds
Timing for main: time 2012-10-29_12:02:07 on domain   1:    0.16508 elapsed seconds
Timing for main: time 2012-10-29_12:02:07 on domain   1:    0.16663 elapsed seconds
Timing for main: time 2012-10-29_12:02:08 on domain   1:    0.16670 elapsed seconds
Timing for main: time 2012-10-29_12:02:08 on domain   1:    0.17145 elapsed seconds
Timing for main: time 2012-10-29_12:02:08 on domain   1:    0.16767 elapsed seconds
Timing for main: time 2012-10-29_12:02:08 on domain   1:    0.16826 elapsed seconds
Timing for main: time 2012-10-29_12:02:08 on domain   1:    0.16529 elapsed seconds
Timing for main: time 2012-10-29_12:02:09 on domain   1:    0.16893 elapsed seconds
Timing for main: time 2012-10-29_12:02:09 on domain   1:    0.16603 elapsed seconds
Timing for main: time 2012-10-29_12:02:09 on domain   1:    0.16652 elapsed seconds
Timing for main: time 2012-10-29_12:02:09 on domain   1:    0.16386 elapsed seconds
Timing for main: time 2012-10-29_12:02:09 on domain   1:    0.16662 elapsed seconds
Timing for main: time 2012-10-29_12:02:10 on domain   1:    0.16690 elapsed seconds
Timing for main: time 2012-10-29_12:02:10 on domain   1:    0.16777 elapsed seconds
Timing for main: time 2012-10-29_12:02:10 on domain   1:    0.16733 elapsed seconds
Timing for main: time 2012-10-29_12:02:10 on domain   1:    0.16685 elapsed seconds
Timing for main: time 2012-10-29_12:02:10 on domain   1:    0.16534 elapsed seconds
Timing for main: time 2012-10-29_12:02:11 on domain   1:    0.16497 elapsed seconds
Timing for main: time 2012-10-29_12:02:11 on domain   1:    0.16679 elapsed seconds
Timing for main: time 2012-10-29_12:02:11 on domain   1:    0.16814 elapsed seconds
Timing for main: time 2012-10-29_12:02:11 on domain   1:    0.16789 elapsed seconds
Timing for main: time 2012-10-29_12:02:11 on domain   1:    0.16782 elapsed seconds
Timing for main: time 2012-10-29_12:02:12 on domain   1:    0.16828 elapsed seconds
Timing for main: time 2012-10-29_12:02:12 on domain   1:    0.16574 elapsed seconds
Timing for main: time 2012-10-29_12:02:12 on domain   1:    0.16632 elapsed seconds
Timing for main: time 2012-10-29_12:02:12 on domain   1:    0.16525 elapsed seconds
Timing for main: time 2012-10-29_12:02:12 on domain   1:    0.16897 elapsed seconds
Timing for main: time 2012-10-29_12:02:13 on domain   1:    0.16793 elapsed seconds
Timing for main: time 2012-10-29_12:02:13 on domain   1:    0.16034 elapsed seconds
Timing for main: time 2012-10-29_12:02:13 on domain   1:    0.16447 elapsed seconds
Timing for main: time 2012-10-29_12:02:13 on domain   1:    0.16303 elapsed seconds
Timing for main: time 2012-10-29_12:02:13 on domain   1:    0.16566 elapsed seconds
Timing for main: time 2012-10-29_12:02:14 on domain   1:    0.16549 elapsed seconds
Timing for main: time 2012-10-29_12:02:14 on domain   1:    0.16706 elapsed seconds
Timing for main: time 2012-10-29_12:02:14 on domain   1:    0.16596 elapsed seconds
Timing for main: time 2012-10-29_12:02:14 on domain   1:    0.17165 elapsed seconds
Timing for main: time 2012-10-29_12:02:14 on domain   1:    0.16317 elapsed seconds
Timing for main: time 2012-10-29_12:02:15 on domain   1:    0.16454 elapsed seconds
Timing for main: time 2012-10-29_12:02:15 on domain   1:    0.16972 elapsed seconds
Timing for main: time 2012-10-29_12:02:15 on domain   1:    0.16509 elapsed seconds
Timing for main: time 2012-10-29_12:02:15 on domain   1:    0.16532 elapsed seconds
Timing for main: time 2012-10-29_12:02:15 on domain   1:    0.16709 elapsed seconds
Timing for main: time 2012-10-29_12:02:16 on domain   1:    0.16969 elapsed seconds
Timing for main: time 2012-10-29_12:02:16 on domain   1:    0.16618 elapsed seconds
Timing for main: time 2012-10-29_12:02:16 on domain   1:    0.17406 elapsed seconds
Timing for main: time 2012-10-29_12:02:16 on domain   1:    0.16613 elapsed seconds
Timing for main: time 2012-10-29_12:02:16 on domain   1:    0.16679 elapsed seconds
Timing for main: time 2012-10-29_12:02:17 on domain   1:    0.16884 elapsed seconds
Timing for main: time 2012-10-29_12:02:17 on domain   1:    0.16377 elapsed seconds
Timing for main: time 2012-10-29_12:02:17 on domain   1:    0.16877 elapsed seconds
Timing for main: time 2012-10-29_12:02:17 on domain   1:    0.16993 elapsed seconds
Timing for main: time 2012-10-29_12:02:17 on domain   1:    0.16671 elapsed seconds
Timing for main: time 2012-10-29_12:02:18 on domain   1:    0.16711 elapsed seconds
Timing for main: time 2012-10-29_12:02:18 on domain   1:    0.16556 elapsed seconds
Timing for main: time 2012-10-29_12:02:18 on domain   1:    0.16711 elapsed seconds
Timing for main: time 2012-10-29_12:02:18 on domain   1:    0.16507 elapsed seconds
Timing for main: time 2012-10-29_12:02:18 on domain   1:    0.17163 elapsed seconds
Timing for main: time 2012-10-29_12:02:19 on domain   1:    0.16614 elapsed seconds
Timing for main: time 2012-10-29_12:02:19 on domain   1:    0.16636 elapsed seconds
Timing for main: time 2012-10-29_12:02:19 on domain   1:    0.16639 elapsed seconds
Timing for main: time 2012-10-29_12:02:19 on domain   1:    0.16844 elapsed seconds
Timing for main: time 2012-10-29_12:02:19 on domain   1:    0.16676 elapsed seconds
Timing for main: time 2012-10-29_12:02:20 on domain   1:    0.16799 elapsed seconds
Timing for main: time 2012-10-29_12:02:20 on domain   1:    0.16461 elapsed seconds
Timing for main: time 2012-10-29_12:02:20 on domain   1:    0.16807 elapsed seconds
Timing for main: time 2012-10-29_12:02:20 on domain   1:    0.16758 elapsed seconds
Timing for main: time 2012-10-29_12:02:20 on domain   1:    0.17049 elapsed seconds
Timing for main: time 2012-10-29_12:02:21 on domain   1:    0.16725 elapsed seconds
Timing for main: time 2012-10-29_12:02:21 on domain   1:    0.16902 elapsed seconds
Timing for main: time 2012-10-29_12:02:21 on domain   1:    0.16525 elapsed seconds
Timing for main: time 2012-10-29_12:02:21 on domain   1:    0.16561 elapsed seconds
Timing for main: time 2012-10-29_12:02:21 on domain   1:    0.17152 elapsed seconds
Timing for main: time 2012-10-29_12:02:22 on domain   1:    0.17030 elapsed seconds
Timing for main: time 2012-10-29_12:02:22 on domain   1:    0.16510 elapsed seconds
Timing for main: time 2012-10-29_12:02:22 on domain   1:    0.16880 elapsed seconds
Timing for main: time 2012-10-29_12:02:22 on domain   1:    0.16912 elapsed seconds
Timing for main: time 2012-10-29_12:02:22 on domain   1:    0.16418 elapsed seconds
Timing for main: time 2012-10-29_12:02:23 on domain   1:    0.16606 elapsed seconds
Timing for main: time 2012-10-29_12:02:23 on domain   1:    0.16681 elapsed seconds
Timing for main: time 2012-10-29_12:02:23 on domain   1:    0.16656 elapsed seconds
Timing for main: time 2012-10-29_12:02:23 on domain   1:    0.16765 elapsed seconds
Timing for main: time 2012-10-29_12:02:23 on domain   1:    0.16804 elapsed seconds
Timing for main: time 2012-10-29_12:02:24 on domain   1:    0.16826 elapsed seconds
Timing for main: time 2012-10-29_12:02:24 on domain   1:    0.16849 elapsed seconds
Timing for main: time 2012-10-29_12:02:24 on domain   1:    0.16694 elapsed seconds
Timing for main: time 2012-10-29_12:02:24 on domain   1:    0.16863 elapsed seconds
Timing for main: time 2012-10-29_12:02:24 on domain   1:    0.16520 elapsed seconds
Timing for main: time 2012-10-29_12:02:25 on domain   1:    0.16782 elapsed seconds
Timing for main: time 2012-10-29_12:02:25 on domain   1:    0.16661 elapsed seconds
Timing for main: time 2012-10-29_12:02:25 on domain   1:    0.16799 elapsed seconds
Timing for main: time 2012-10-29_12:02:25 on domain   1:    0.16813 elapsed seconds
Timing for main: time 2012-10-29_12:02:25 on domain   1:    0.16465 elapsed seconds
Timing for main: time 2012-10-29_12:02:26 on domain   1:    0.16681 elapsed seconds
Timing for main: time 2012-10-29_12:02:26 on domain   1:    0.16879 elapsed seconds
Timing for main: time 2012-10-29_12:02:26 on domain   1:    0.16817 elapsed seconds
Timing for main: time 2012-10-29_12:02:26 on domain   1:    0.16696 elapsed seconds
Timing for main: time 2012-10-29_12:02:26 on domain   1:    0.16444 elapsed seconds
Timing for main: time 2012-10-29_12:02:27 on domain   1:    0.16905 elapsed seconds
Timing for main: time 2012-10-29_12:02:27 on domain   1:    0.16471 elapsed seconds
Timing for main: time 2012-10-29_12:02:27 on domain   1:    0.16678 elapsed seconds
Timing for main: time 2012-10-29_12:02:27 on domain   1:    0.16868 elapsed seconds
Timing for main: time 2012-10-29_12:02:27 on domain   1:    0.16917 elapsed seconds
Timing for main: time 2012-10-29_12:02:28 on domain   1:    0.17036 elapsed seconds
Timing for main: time 2012-10-29_12:02:28 on domain   1:    0.16498 elapsed seconds
Timing for main: time 2012-10-29_12:02:28 on domain   1:    0.16856 elapsed seconds
Timing for main: time 2012-10-29_12:02:28 on domain   1:    0.16417 elapsed seconds
Timing for main: time 2012-10-29_12:02:28 on domain   1:    0.17059 elapsed seconds
Timing for main: time 2012-10-29_12:02:29 on domain   1:    0.16794 elapsed seconds
Timing for main: time 2012-10-29_12:02:29 on domain   1:    0.17229 elapsed seconds
Timing for main: time 2012-10-29_12:02:29 on domain   1:    0.16934 elapsed seconds
Timing for main: time 2012-10-29_12:02:29 on domain   1:    0.16194 elapsed seconds
Timing for main: time 2012-10-29_12:02:29 on domain   1:    0.16556 elapsed seconds
Timing for main: time 2012-10-29_12:02:30 on domain   1:    0.16721 elapsed seconds
Timing for main: time 2012-10-29_12:02:30 on domain   1:    0.16820 elapsed seconds
Timing for main: time 2012-10-29_12:02:30 on domain   1:    0.17093 elapsed seconds
Timing for main: time 2012-10-29_12:02:30 on domain   1:    0.16735 elapsed seconds
Timing for main: time 2012-10-29_12:02:30 on domain   1:    0.16756 elapsed seconds
Timing for main: time 2012-10-29_12:02:31 on domain   1:    0.17108 elapsed seconds
Timing for main: time 2012-10-29_12:02:31 on domain   1:    0.16433 elapsed seconds
Timing for main: time 2012-10-29_12:02:31 on domain   1:    0.16775 elapsed seconds
Timing for main: time 2012-10-29_12:02:31 on domain   1:    0.16623 elapsed seconds
Timing for main: time 2012-10-29_12:02:31 on domain   1:    0.16980 elapsed seconds
Timing for main: time 2012-10-29_12:02:32 on domain   1:    0.16463 elapsed seconds
Timing for main: time 2012-10-29_12:02:32 on domain   1:    0.16401 elapsed seconds
Timing for main: time 2012-10-29_12:02:32 on domain   1:    0.16957 elapsed seconds
Timing for main: time 2012-10-29_12:02:32 on domain   1:    0.16594 elapsed seconds
Timing for main: time 2012-10-29_12:02:32 on domain   1:    0.16343 elapsed seconds
Timing for main: time 2012-10-29_12:02:33 on domain   1:    0.16969 elapsed seconds
Timing for main: time 2012-10-29_12:02:33 on domain   1:    0.16323 elapsed seconds
Timing for main: time 2012-10-29_12:02:33 on domain   1:    0.16790 elapsed seconds
Timing for main: time 2012-10-29_12:02:33 on domain   1:    0.16748 elapsed seconds
Timing for main: time 2012-10-29_12:02:33 on domain   1:    0.16441 elapsed seconds
Timing for main: time 2012-10-29_12:02:34 on domain   1:    0.16426 elapsed seconds
Timing for main: time 2012-10-29_12:02:34 on domain   1:    0.16750 elapsed seconds
Timing for main: time 2012-10-29_12:02:34 on domain   1:    0.17027 elapsed seconds
Timing for main: time 2012-10-29_12:02:34 on domain   1:    0.16571 elapsed seconds
Timing for main: time 2012-10-29_12:02:34 on domain   1:    0.16660 elapsed seconds
Timing for main: time 2012-10-29_12:02:35 on domain   1:    0.16901 elapsed seconds
Timing for main: time 2012-10-29_12:02:35 on domain   1:    0.16687 elapsed seconds
Timing for main: time 2012-10-29_12:02:35 on domain   1:    0.16875 elapsed seconds
Timing for main: time 2012-10-29_12:02:35 on domain   1:    0.16707 elapsed seconds
Timing for main: time 2012-10-29_12:02:35 on domain   1:    0.16661 elapsed seconds
Timing for main: time 2012-10-29_12:02:36 on domain   1:    0.16919 elapsed seconds
Timing for main: time 2012-10-29_12:02:36 on domain   1:    0.16639 elapsed seconds
Timing for main: time 2012-10-29_12:02:36 on domain   1:    0.16514 elapsed seconds
Timing for main: time 2012-10-29_12:02:36 on domain   1:    0.17205 elapsed seconds
Timing for main: time 2012-10-29_12:02:36 on domain   1:    0.16760 elapsed seconds
Timing for main: time 2012-10-29_12:02:37 on domain   1:    0.16920 elapsed seconds
Timing for main: time 2012-10-29_12:02:37 on domain   1:    0.16705 elapsed seconds
Timing for main: time 2012-10-29_12:02:37 on domain   1:    0.16710 elapsed seconds
Timing for main: time 2012-10-29_12:02:37 on domain   1:    0.16609 elapsed seconds
Timing for main: time 2012-10-29_12:02:37 on domain   1:    0.17066 elapsed seconds
Timing for main: time 2012-10-29_12:02:38 on domain   1:    0.16893 elapsed seconds
Timing for main: time 2012-10-29_12:02:38 on domain   1:    0.16784 elapsed seconds
Timing for main: time 2012-10-29_12:02:38 on domain   1:    0.16649 elapsed seconds
Timing for main: time 2012-10-29_12:02:38 on domain   1:    0.16491 elapsed seconds
Timing for main: time 2012-10-29_12:02:38 on domain   1:    0.16806 elapsed seconds
Timing for main: time 2012-10-29_12:02:39 on domain   1:    0.16632 elapsed seconds
Timing for main: time 2012-10-29_12:02:39 on domain   1:    0.16826 elapsed seconds
Timing for main: time 2012-10-29_12:02:39 on domain   1:    0.16338 elapsed seconds
Timing for main: time 2012-10-29_12:02:39 on domain   1:    0.16714 elapsed seconds
Timing for main: time 2012-10-29_12:02:39 on domain   1:    0.16852 elapsed seconds
Timing for main: time 2012-10-29_12:02:40 on domain   1:    0.16477 elapsed seconds
Timing for main: time 2012-10-29_12:02:40 on domain   1:    0.16702 elapsed seconds
Timing for main: time 2012-10-29_12:02:40 on domain   1:    0.16822 elapsed seconds
Timing for main: time 2012-10-29_12:02:40 on domain   1:    0.16834 elapsed seconds
Timing for main: time 2012-10-29_12:02:40 on domain   1:    0.16559 elapsed seconds
Timing for main: time 2012-10-29_12:02:41 on domain   1:    0.16588 elapsed seconds
Timing for main: time 2012-10-29_12:02:41 on domain   1:    0.16756 elapsed seconds
Timing for main: time 2012-10-29_12:02:41 on domain   1:    0.16701 elapsed seconds
Timing for main: time 2012-10-29_12:02:41 on domain   1:    0.16260 elapsed seconds
Timing for main: time 2012-10-29_12:02:41 on domain   1:    0.16625 elapsed seconds
Timing for main: time 2012-10-29_12:02:42 on domain   1:    0.16628 elapsed seconds
Timing for main: time 2012-10-29_12:02:42 on domain   1:    0.16542 elapsed seconds
Timing for main: time 2012-10-29_12:02:42 on domain   1:    0.16671 elapsed seconds
Timing for main: time 2012-10-29_12:02:42 on domain   1:    0.16564 elapsed seconds
Timing for main: time 2012-10-29_12:02:42 on domain   1:    0.17520 elapsed seconds
Timing for main: time 2012-10-29_12:02:43 on domain   1:    0.16520 elapsed seconds
Timing for main: time 2012-10-29_12:02:43 on domain   1:    0.16553 elapsed seconds
Timing for main: time 2012-10-29_12:02:43 on domain   1:    0.16351 elapsed seconds
Timing for main: time 2012-10-29_12:02:43 on domain   1:    0.17037 elapsed seconds
Timing for main: time 2012-10-29_12:02:43 on domain   1:    0.16706 elapsed seconds
Timing for main: time 2012-10-29_12:02:44 on domain   1:    0.16757 elapsed seconds
Timing for main: time 2012-10-29_12:02:44 on domain   1:    0.17073 elapsed seconds
Timing for main: time 2012-10-29_12:02:44 on domain   1:    0.16536 elapsed seconds
Timing for main: time 2012-10-29_12:02:44 on domain   1:    0.16542 elapsed seconds
Timing for main: time 2012-10-29_12:02:44 on domain   1:    0.16670 elapsed seconds
Timing for main: time 2012-10-29_12:02:45 on domain   1:    0.16981 elapsed seconds
Timing for main: time 2012-10-29_12:02:45 on domain   1:    0.16796 elapsed seconds
Timing for main: time 2012-10-29_12:02:45 on domain   1:    0.16757 elapsed seconds
Timing for main: time 2012-10-29_12:02:45 on domain   1:    0.16600 elapsed seconds
Timing for main: time 2012-10-29_12:02:45 on domain   1:    0.16654 elapsed seconds
Timing for main: time 2012-10-29_12:02:46 on domain   1:    0.16568 elapsed seconds
Timing for main: time 2012-10-29_12:02:46 on domain   1:    0.16946 elapsed seconds
Timing for main: time 2012-10-29_12:02:46 on domain   1:    0.17052 elapsed seconds
Timing for main: time 2012-10-29_12:02:46 on domain   1:    0.16945 elapsed seconds
Timing for main: time 2012-10-29_12:02:46 on domain   1:    0.16610 elapsed seconds
Timing for main: time 2012-10-29_12:02:47 on domain   1:    0.16755 elapsed seconds
Timing for main: time 2012-10-29_12:02:47 on domain   1:    0.16590 elapsed seconds
Timing for main: time 2012-10-29_12:02:47 on domain   1:    0.16403 elapsed seconds
Timing for main: time 2012-10-29_12:02:47 on domain   1:    0.16728 elapsed seconds
Timing for main: time 2012-10-29_12:02:47 on domain   1:    0.16450 elapsed seconds
Timing for main: time 2012-10-29_12:02:48 on domain   1:    0.16638 elapsed seconds
Timing for main: time 2012-10-29_12:02:48 on domain   1:    0.16636 elapsed seconds
Timing for main: time 2012-10-29_12:02:48 on domain   1:    0.16607 elapsed seconds
Timing for main: time 2012-10-29_12:02:48 on domain   1:    0.16991 elapsed seconds
Timing for main: time 2012-10-29_12:02:48 on domain   1:    0.16606 elapsed seconds
Timing for main: time 2012-10-29_12:02:49 on domain   1:    0.17109 elapsed seconds
Timing for main: time 2012-10-29_12:02:49 on domain   1:    0.16773 elapsed seconds
Timing for main: time 2012-10-29_12:02:49 on domain   1:    0.16544 elapsed seconds
Timing for main: time 2012-10-29_12:02:49 on domain   1:    0.16932 elapsed seconds
Timing for main: time 2012-10-29_12:02:49 on domain   1:    0.16991 elapsed seconds
Timing for main: time 2012-10-29_12:02:50 on domain   1:    0.16519 elapsed seconds
Timing for main: time 2012-10-29_12:02:50 on domain   1:    0.17011 elapsed seconds
Timing for main: time 2012-10-29_12:02:50 on domain   1:    0.16507 elapsed seconds
Timing for main: time 2012-10-29_12:02:50 on domain   1:    0.16734 elapsed seconds
Timing for main: time 2012-10-29_12:02:50 on domain   1:    0.16984 elapsed seconds
Timing for main: time 2012-10-29_12:02:51 on domain   1:    0.16684 elapsed seconds
Timing for main: time 2012-10-29_12:02:51 on domain   1:    0.17027 elapsed seconds
Timing for main: time 2012-10-29_12:02:51 on domain   1:    0.17272 elapsed seconds
Timing for main: time 2012-10-29_12:02:51 on domain   1:    0.16296 elapsed seconds
Timing for main: time 2012-10-29_12:02:51 on domain   1:    0.17142 elapsed seconds
Timing for main: time 2012-10-29_12:02:52 on domain   1:    0.16683 elapsed seconds
Timing for main: time 2012-10-29_12:02:52 on domain   1:    0.16830 elapsed seconds
Timing for main: time 2012-10-29_12:02:52 on domain   1:    0.16530 elapsed seconds
Timing for main: time 2012-10-29_12:02:52 on domain   1:    0.16781 elapsed seconds
Timing for main: time 2012-10-29_12:02:52 on domain   1:    0.16975 elapsed seconds
Timing for main: time 2012-10-29_12:02:53 on domain   1:    0.16632 elapsed seconds
Timing for main: time 2012-10-29_12:02:53 on domain   1:    0.16861 elapsed seconds
Timing for main: time 2012-10-29_12:02:53 on domain   1:    0.16613 elapsed seconds
Timing for main: time 2012-10-29_12:02:53 on domain   1:    0.17070 elapsed seconds
Timing for main: time 2012-10-29_12:02:53 on domain   1:    0.16317 elapsed seconds
Timing for main: time 2012-10-29_12:02:54 on domain   1:    0.16632 elapsed seconds
Timing for main: time 2012-10-29_12:02:54 on domain   1:    0.16635 elapsed seconds
Timing for main: time 2012-10-29_12:02:54 on domain   1:    0.16814 elapsed seconds
Timing for main: time 2012-10-29_12:02:54 on domain   1:    0.16551 elapsed seconds
Timing for main: time 2012-10-29_12:02:54 on domain   1:    0.16617 elapsed seconds
Timing for main: time 2012-10-29_12:02:55 on domain   1:    0.16073 elapsed seconds
Timing for main: time 2012-10-29_12:02:55 on domain   1:    0.16244 elapsed seconds
Timing for main: time 2012-10-29_12:02:55 on domain   1:    0.16834 elapsed seconds
Timing for main: time 2012-10-29_12:02:55 on domain   1:    0.16381 elapsed seconds
Timing for main: time 2012-10-29_12:02:55 on domain   1:    0.16280 elapsed seconds
Timing for main: time 2012-10-29_12:02:56 on domain   1:    0.16635 elapsed seconds
Timing for main: time 2012-10-29_12:02:56 on domain   1:    0.16791 elapsed seconds
Timing for main: time 2012-10-29_12:02:56 on domain   1:    0.16749 elapsed seconds
Timing for main: time 2012-10-29_12:02:56 on domain   1:    0.16641 elapsed seconds
Timing for main: time 2012-10-29_12:02:56 on domain   1:    0.16440 elapsed seconds
Timing for main: time 2012-10-29_12:02:57 on domain   1:    0.16615 elapsed seconds
Timing for main: time 2012-10-29_12:02:57 on domain   1:    0.16717 elapsed seconds
Timing for main: time 2012-10-29_12:02:57 on domain   1:    0.17151 elapsed seconds
Timing for main: time 2012-10-29_12:02:57 on domain   1:    0.17117 elapsed seconds
Timing for main: time 2012-10-29_12:02:57 on domain   1:    0.16814 elapsed seconds
Timing for main: time 2012-10-29_12:02:58 on domain   1:    0.16727 elapsed seconds
Timing for main: time 2012-10-29_12:02:58 on domain   1:    0.16940 elapsed seconds
Timing for main: time 2012-10-29_12:02:58 on domain   1:    0.16421 elapsed seconds
Timing for main: time 2012-10-29_12:02:58 on domain   1:    0.16815 elapsed seconds
Timing for main: time 2012-10-29_12:02:58 on domain   1:    0.16792 elapsed seconds
Timing for main: time 2012-10-29_12:02:59 on domain   1:    0.16728 elapsed seconds
Timing for main: time 2012-10-29_12:02:59 on domain   1:    0.16876 elapsed seconds
[...]
Timing for main: time 2012-10-29_12:29:12 on domain   1:    0.18172 elapsed seconds
Timing for main: time 2012-10-29_12:29:13 on domain   1:    0.16920 elapsed seconds
Timing for main: time 2012-10-29_12:29:13 on domain   1:    0.17146 elapsed seconds
Timing for main: time 2012-10-29_12:29:13 on domain   1:    0.17263 elapsed seconds
Timing for main: time 2012-10-29_12:29:13 on domain   1:    0.17284 elapsed seconds
Timing for main: time 2012-10-29_12:29:13 on domain   1:    0.17162 elapsed seconds
Timing for main: time 2012-10-29_12:29:14 on domain   1:    0.16742 elapsed seconds
Timing for main: time 2012-10-29_12:29:14 on domain   1:    0.17411 elapsed seconds
Timing for main: time 2012-10-29_12:29:14 on domain   1:    0.17505 elapsed seconds
Timing for main: time 2012-10-29_12:29:14 on domain   1:    0.17210 elapsed seconds
Timing for main: time 2012-10-29_12:29:14 on domain   1:    0.16989 elapsed seconds
Timing for main: time 2012-10-29_12:29:15 on domain   1:    0.17172 elapsed seconds
Timing for main: time 2012-10-29_12:29:15 on domain   1:    0.17011 elapsed seconds
Timing for main: time 2012-10-29_12:29:15 on domain   1:    0.17704 elapsed seconds
Timing for main: time 2012-10-29_12:29:15 on domain   1:    0.17268 elapsed seconds
Timing for main: time 2012-10-29_12:29:15 on domain   1:    0.17046 elapsed seconds
Timing for main: time 2012-10-29_12:29:16 on domain   1:    0.18215 elapsed seconds
Timing for main: time 2012-10-29_12:29:16 on domain   1:    0.17474 elapsed seconds
Timing for main: time 2012-10-29_12:29:16 on domain   1:    0.17279 elapsed seconds
Timing for main: time 2012-10-29_12:29:16 on domain   1:    0.17186 elapsed seconds
Timing for main: time 2012-10-29_12:29:16 on domain   1:    0.17383 elapsed seconds
Timing for main: time 2012-10-29_12:29:17 on domain   1:    0.17192 elapsed seconds
Timing for main: time 2012-10-29_12:29:17 on domain   1:    0.17131 elapsed seconds
Timing for main: time 2012-10-29_12:29:17 on domain   1:    0.17618 elapsed seconds
Timing for main: time 2012-10-29_12:29:17 on domain   1:    0.17167 elapsed seconds
Timing for main: time 2012-10-29_12:29:17 on domain   1:    0.17587 elapsed seconds
Timing for main: time 2012-10-29_12:29:18 on domain   1:    0.16914 elapsed seconds
Timing for main: time 2012-10-29_12:29:18 on domain   1:    0.17202 elapsed seconds
Timing for main: time 2012-10-29_12:29:18 on domain   1:    0.17241 elapsed seconds
Timing for main: time 2012-10-29_12:29:18 on domain   1:    0.17999 elapsed seconds
Timing for main: time 2012-10-29_12:29:18 on domain   1:    0.17061 elapsed seconds
Timing for main: time 2012-10-29_12:29:19 on domain   1:    0.17441 elapsed seconds
Timing for main: time 2012-10-29_12:29:19 on domain   1:    0.16760 elapsed seconds
Timing for main: time 2012-10-29_12:29:19 on domain   1:    0.17187 elapsed seconds
Timing for main: time 2012-10-29_12:29:19 on domain   1:    0.16909 elapsed seconds
Timing for main: time 2012-10-29_12:29:19 on domain   1:    0.17393 elapsed seconds
Timing for main: time 2012-10-29_12:29:20 on domain   1:    0.17871 elapsed seconds
Timing for main: time 2012-10-29_12:29:20 on domain   1:    0.17026 elapsed seconds
Timing for main: time 2012-10-29_12:29:20 on domain   1:    0.17083 elapsed seconds
Timing for main: time 2012-10-29_12:29:20 on domain   1:    0.17582 elapsed seconds
Timing for main: time 2012-10-29_12:29:20 on domain   1:    0.17010 elapsed seconds
Timing for main: time 2012-10-29_12:29:21 on domain   1:    0.17852 elapsed seconds
Timing for main: time 2012-10-29_12:29:21 on domain   1:    0.16911 elapsed seconds
Timing for main: time 2012-10-29_12:29:21 on domain   1:    0.17114 elapsed seconds
Timing for main: time 2012-10-29_12:29:21 on domain   1:    0.17238 elapsed seconds
Timing for main: time 2012-10-29_12:29:21 on domain   1:    0.16989 elapsed seconds
Timing for main: time 2012-10-29_12:29:22 on domain   1:    0.17111 elapsed seconds
Timing for main: time 2012-10-29_12:29:22 on domain   1:    0.17120 elapsed seconds
Timing for main: time 2012-10-29_12:29:22 on domain   1:    0.17292 elapsed seconds
Timing for main: time 2012-10-29_12:29:22 on domain   1:    0.17238 elapsed seconds
Timing for main: time 2012-10-29_12:29:22 on domain   1:    0.17293 elapsed seconds
Timing for main: time 2012-10-29_12:29:23 on domain   1:    0.18277 elapsed seconds
Timing for main: time 2012-10-29_12:29:23 on domain   1:    0.16806 elapsed seconds
Timing for main: time 2012-10-29_12:29:23 on domain   1:    0.16896 elapsed seconds
Timing for main: time 2012-10-29_12:29:23 on domain   1:    0.17326 elapsed seconds
Timing for main: time 2012-10-29_12:29:23 on domain   1:    0.17276 elapsed seconds
Timing for main: time 2012-10-29_12:29:24 on domain   1:    0.16973 elapsed seconds
Timing for main: time 2012-10-29_12:29:24 on domain   1:    0.17564 elapsed seconds
Timing for main: time 2012-10-29_12:29:24 on domain   1:    0.17139 elapsed seconds
Timing for main: time 2012-10-29_12:29:24 on domain   1:    0.16705 elapsed seconds
Timing for main: time 2012-10-29_12:29:24 on domain   1:    0.17485 elapsed seconds
Timing for main: time 2012-10-29_12:29:25 on domain   1:    0.17165 elapsed seconds
Timing for main: time 2012-10-29_12:29:25 on domain   1:    0.17168 elapsed seconds
Timing for main: time 2012-10-29_12:29:25 on domain   1:    0.17952 elapsed seconds
Timing for main: time 2012-10-29_12:29:25 on domain   1:    0.16767 elapsed seconds
Timing for main: time 2012-10-29_12:29:25 on domain   1:    0.17468 elapsed seconds
Timing for main: time 2012-10-29_12:29:26 on domain   1:    0.17459 elapsed seconds
Timing for main: time 2012-10-29_12:29:26 on domain   1:    0.17598 elapsed seconds
Timing for main: time 2012-10-29_12:29:26 on domain   1:    0.18087 elapsed seconds
Timing for main: time 2012-10-29_12:29:26 on domain   1:    0.17505 elapsed seconds
Timing for main: time 2012-10-29_12:29:26 on domain   1:    0.17399 elapsed seconds
Timing for main: time 2012-10-29_12:29:27 on domain   1:    0.17279 elapsed seconds
Timing for main: time 2012-10-29_12:29:27 on domain   1:    0.17689 elapsed seconds
Timing for main: time 2012-10-29_12:29:27 on domain   1:    0.17322 elapsed seconds
Timing for main: time 2012-10-29_12:29:27 on domain   1:    0.17052 elapsed seconds
Timing for main: time 2012-10-29_12:29:27 on domain   1:    0.17157 elapsed seconds
Timing for main: time 2012-10-29_12:29:28 on domain   1:    0.17463 elapsed seconds
Timing for main: time 2012-10-29_12:29:28 on domain   1:    0.17068 elapsed seconds
Timing for main: time 2012-10-29_12:29:28 on domain   1:    0.17635 elapsed seconds
Timing for main: time 2012-10-29_12:29:28 on domain   1:    0.17361 elapsed seconds
Timing for main: time 2012-10-29_12:29:28 on domain   1:    0.17186 elapsed seconds
Timing for main: time 2012-10-29_12:29:29 on domain   1:    0.17082 elapsed seconds
Timing for main: time 2012-10-29_12:29:29 on domain   1:    0.17237 elapsed seconds
Timing for main: time 2012-10-29_12:29:29 on domain   1:    0.17368 elapsed seconds
Timing for main: time 2012-10-29_12:29:29 on domain   1:    0.17145 elapsed seconds
Timing for main: time 2012-10-29_12:29:29 on domain   1:    0.16915 elapsed seconds
Timing for main: time 2012-10-29_12:29:30 on domain   1:    0.17209 elapsed seconds
Timing for main: time 2012-10-29_12:29:30 on domain   1:    0.17671 elapsed seconds
Timing for main: time 2012-10-29_12:29:30 on domain   1:    0.17753 elapsed seconds
Timing for main: time 2012-10-29_12:29:30 on domain   1:    0.16895 elapsed seconds
Timing for main: time 2012-10-29_12:29:30 on domain   1:    0.17196 elapsed seconds
Timing for main: time 2012-10-29_12:29:31 on domain   1:    0.17449 elapsed seconds
Timing for main: time 2012-10-29_12:29:31 on domain   1:    0.17061 elapsed seconds
Timing for main: time 2012-10-29_12:29:31 on domain   1:    0.17241 elapsed seconds
Timing for main: time 2012-10-29_12:29:31 on domain   1:    0.17569 elapsed seconds
Timing for main: time 2012-10-29_12:29:31 on domain   1:    0.17062 elapsed seconds
Timing for main: time 2012-10-29_12:29:32 on domain   1:    0.17082 elapsed seconds
Timing for main: time 2012-10-29_12:29:32 on domain   1:    0.17849 elapsed seconds
Timing for main: time 2012-10-29_12:29:32 on domain   1:    0.17522 elapsed seconds
Timing for main: time 2012-10-29_12:29:32 on domain   1:    0.17180 elapsed seconds
Timing for main: time 2012-10-29_12:29:32 on domain   1:    0.17358 elapsed seconds
Timing for main: time 2012-10-29_12:29:33 on domain   1:    0.17147 elapsed seconds
Timing for main: time 2012-10-29_12:29:33 on domain   1:    0.17147 elapsed seconds
Timing for main: time 2012-10-29_12:29:33 on domain   1:    0.17408 elapsed seconds
Timing for main: time 2012-10-29_12:29:33 on domain   1:    0.17131 elapsed seconds
Timing for main: time 2012-10-29_12:29:33 on domain   1:    0.17116 elapsed seconds
Timing for main: time 2012-10-29_12:29:34 on domain   1:    0.17591 elapsed seconds
Timing for main: time 2012-10-29_12:29:34 on domain   1:    0.17095 elapsed seconds
Timing for main: time 2012-10-29_12:29:34 on domain   1:    0.18304 elapsed seconds
Timing for main: time 2012-10-29_12:29:34 on domain   1:    0.17318 elapsed seconds
Timing for main: time 2012-10-29_12:29:34 on domain   1:    0.17140 elapsed seconds
Timing for main: time 2012-10-29_12:29:35 on domain   1:    0.17442 elapsed seconds
Timing for main: time 2012-10-29_12:29:35 on domain   1:    0.17595 elapsed seconds
Timing for main: time 2012-10-29_12:29:35 on domain   1:    0.17011 elapsed seconds
Timing for main: time 2012-10-29_12:29:35 on domain   1:    0.17294 elapsed seconds
Timing for main: time 2012-10-29_12:29:35 on domain   1:    0.17200 elapsed seconds
Timing for main: time 2012-10-29_12:29:36 on domain   1:    0.17673 elapsed seconds
Timing for main: time 2012-10-29_12:29:36 on domain   1:    0.16754 elapsed seconds
Timing for main: time 2012-10-29_12:29:36 on domain   1:    0.17386 elapsed seconds
Timing for main: time 2012-10-29_12:29:36 on domain   1:    0.17095 elapsed seconds
Timing for main: time 2012-10-29_12:29:36 on domain   1:    0.17009 elapsed seconds
Timing for main: time 2012-10-29_12:29:37 on domain   1:    0.17166 elapsed seconds
Timing for main: time 2012-10-29_12:29:37 on domain   1:    0.17140 elapsed seconds
Timing for main: time 2012-10-29_12:29:37 on domain   1:    0.17276 elapsed seconds
Timing for main: time 2012-10-29_12:29:37 on domain   1:    0.17759 elapsed seconds
Timing for main: time 2012-10-29_12:29:37 on domain   1:    0.17537 elapsed seconds
Timing for main: time 2012-10-29_12:29:38 on domain   1:    0.17405 elapsed seconds
Timing for main: time 2012-10-29_12:29:38 on domain   1:    0.17185 elapsed seconds
Timing for main: time 2012-10-29_12:29:38 on domain   1:    0.17079 elapsed seconds
Timing for main: time 2012-10-29_12:29:38 on domain   1:    0.17078 elapsed seconds
Timing for main: time 2012-10-29_12:29:38 on domain   1:    0.17462 elapsed seconds
Timing for main: time 2012-10-29_12:29:39 on domain   1:    0.17115 elapsed seconds
Timing for main: time 2012-10-29_12:29:39 on domain   1:    0.17223 elapsed seconds
Timing for main: time 2012-10-29_12:29:39 on domain   1:    0.17333 elapsed seconds
Timing for main: time 2012-10-29_12:29:39 on domain   1:    0.17293 elapsed seconds
Timing for main: time 2012-10-29_12:29:39 on domain   1:    0.17111 elapsed seconds
Timing for main: time 2012-10-29_12:29:40 on domain   1:    0.17526 elapsed seconds
Timing for main: time 2012-10-29_12:29:40 on domain   1:    0.17471 elapsed seconds
Timing for main: time 2012-10-29_12:29:40 on domain   1:    0.17302 elapsed seconds
Timing for main: time 2012-10-29_12:29:40 on domain   1:    0.17406 elapsed seconds
Timing for main: time 2012-10-29_12:29:40 on domain   1:    0.17716 elapsed seconds
Timing for main: time 2012-10-29_12:29:41 on domain   1:    0.17137 elapsed seconds
Timing for main: time 2012-10-29_12:29:41 on domain   1:    0.17308 elapsed seconds
Timing for main: time 2012-10-29_12:29:41 on domain   1:    0.17449 elapsed seconds
Timing for main: time 2012-10-29_12:29:41 on domain   1:    0.17149 elapsed seconds
Timing for main: time 2012-10-29_12:29:41 on domain   1:    0.17315 elapsed seconds
Timing for main: time 2012-10-29_12:29:42 on domain   1:    0.17459 elapsed seconds
Timing for main: time 2012-10-29_12:29:42 on domain   1:    0.17161 elapsed seconds
Timing for main: time 2012-10-29_12:29:42 on domain   1:    0.17201 elapsed seconds
Timing for main: time 2012-10-29_12:29:42 on domain   1:    0.17641 elapsed seconds
Timing for main: time 2012-10-29_12:29:42 on domain   1:    0.17398 elapsed seconds
Timing for main: time 2012-10-29_12:29:43 on domain   1:    0.17427 elapsed seconds
Timing for main: time 2012-10-29_12:29:43 on domain   1:    0.17167 elapsed seconds
Timing for main: time 2012-10-29_12:29:43 on domain   1:    0.17201 elapsed seconds
Timing for main: time 2012-10-29_12:29:43 on domain   1:    0.18094 elapsed seconds
Timing for main: time 2012-10-29_12:29:43 on domain   1:    0.16710 elapsed seconds
Timing for main: time 2012-10-29_12:29:44 on domain   1:    0.16858 elapsed seconds
Timing for main: time 2012-10-29_12:29:44 on domain   1:    0.17124 elapsed seconds
Timing for main: time 2012-10-29_12:29:44 on domain   1:    0.17384 elapsed seconds
Timing for main: time 2012-10-29_12:29:44 on domain   1:    0.17117 elapsed seconds
Timing for main: time 2012-10-29_12:29:44 on domain   1:    0.17211 elapsed seconds
Timing for main: time 2012-10-29_12:29:45 on domain   1:    0.17173 elapsed seconds
Timing for main: time 2012-10-29_12:29:45 on domain   1:    0.17332 elapsed seconds
Timing for main: time 2012-10-29_12:29:45 on domain   1:    0.17132 elapsed seconds
Timing for main: time 2012-10-29_12:29:45 on domain   1:    0.17189 elapsed seconds
Timing for main: time 2012-10-29_12:29:45 on domain   1:    0.17687 elapsed seconds
Timing for main: time 2012-10-29_12:29:46 on domain   1:    0.17245 elapsed seconds
Timing for main: time 2012-10-29_12:29:46 on domain   1:    0.16991 elapsed seconds
Timing for main: time 2012-10-29_12:29:46 on domain   1:    0.17500 elapsed seconds
Timing for main: time 2012-10-29_12:29:46 on domain   1:    0.17316 elapsed seconds
Timing for main: time 2012-10-29_12:29:46 on domain   1:    0.17209 elapsed seconds
Timing for main: time 2012-10-29_12:29:47 on domain   1:    0.17297 elapsed seconds
Timing for main: time 2012-10-29_12:29:47 on domain   1:    0.17744 elapsed seconds
Timing for main: time 2012-10-29_12:29:47 on domain   1:    0.17263 elapsed seconds
Timing for main: time 2012-10-29_12:29:47 on domain   1:    0.17263 elapsed seconds
Timing for main: time 2012-10-29_12:29:47 on domain   1:    0.17321 elapsed seconds
Timing for main: time 2012-10-29_12:29:48 on domain   1:    0.17386 elapsed seconds
Timing for main: time 2012-10-29_12:29:48 on domain   1:    0.17320 elapsed seconds
Timing for main: time 2012-10-29_12:29:48 on domain   1:    0.17333 elapsed seconds
Timing for main: time 2012-10-29_12:29:48 on domain   1:    0.17929 elapsed seconds
Timing for main: time 2012-10-29_12:29:48 on domain   1:    0.17127 elapsed seconds
Timing for main: time 2012-10-29_12:29:49 on domain   1:    0.17310 elapsed seconds
Timing for main: time 2012-10-29_12:29:49 on domain   1:    0.17545 elapsed seconds
Timing for main: time 2012-10-29_12:29:49 on domain   1:    0.17137 elapsed seconds
Timing for main: time 2012-10-29_12:29:49 on domain   1:    0.17382 elapsed seconds
Timing for main: time 2012-10-29_12:29:49 on domain   1:    0.17581 elapsed seconds
Timing for main: time 2012-10-29_12:29:50 on domain   1:    0.17196 elapsed seconds
Timing for main: time 2012-10-29_12:29:50 on domain   1:    0.17469 elapsed seconds
Timing for main: time 2012-10-29_12:29:50 on domain   1:    0.17408 elapsed seconds
Timing for main: time 2012-10-29_12:29:50 on domain   1:    0.17152 elapsed seconds
Timing for main: time 2012-10-29_12:29:50 on domain   1:    0.17174 elapsed seconds
Timing for main: time 2012-10-29_12:29:51 on domain   1:    0.17561 elapsed seconds
Timing for main: time 2012-10-29_12:29:51 on domain   1:    0.17185 elapsed seconds
Timing for main: time 2012-10-29_12:29:51 on domain   1:    0.17605 elapsed seconds
Timing for main: time 2012-10-29_12:29:51 on domain   1:    0.17047 elapsed seconds
Timing for main: time 2012-10-29_12:29:51 on domain   1:    0.17220 elapsed seconds
Timing for main: time 2012-10-29_12:29:52 on domain   1:    0.17730 elapsed seconds
Timing for main: time 2012-10-29_12:29:52 on domain   1:    0.17238 elapsed seconds
Timing for main: time 2012-10-29_12:29:52 on domain   1:    0.17239 elapsed seconds
Timing for main: time 2012-10-29_12:29:52 on domain   1:    0.17497 elapsed seconds
Timing for main: time 2012-10-29_12:29:52 on domain   1:    0.17166 elapsed seconds
Timing for main: time 2012-10-29_12:29:53 on domain   1:    0.17198 elapsed seconds
Timing for main: time 2012-10-29_12:29:53 on domain   1:    0.17403 elapsed seconds
Timing for main: time 2012-10-29_12:29:53 on domain   1:    0.17153 elapsed seconds
Timing for main: time 2012-10-29_12:29:53 on domain   1:    0.17755 elapsed seconds
Timing for main: time 2012-10-29_12:29:53 on domain   1:    0.17812 elapsed seconds
Timing for main: time 2012-10-29_12:29:54 on domain   1:    0.17027 elapsed seconds
Timing for main: time 2012-10-29_12:29:54 on domain   1:    0.17587 elapsed seconds
Timing for main: time 2012-10-29_12:29:54 on domain   1:    0.17569 elapsed seconds
Timing for main: time 2012-10-29_12:29:54 on domain   1:    0.17330 elapsed seconds
Timing for main: time 2012-10-29_12:29:54 on domain   1:    0.17284 elapsed seconds
Timing for main: time 2012-10-29_12:29:55 on domain   1:    0.18003 elapsed seconds
Timing for main: time 2012-10-29_12:29:55 on domain   1:    0.17017 elapsed seconds
Timing for main: time 2012-10-29_12:29:55 on domain   1:    0.17165 elapsed seconds
Timing for main: time 2012-10-29_12:29:55 on domain   1:    0.17315 elapsed seconds
Timing for main: time 2012-10-29_12:29:55 on domain   1:    0.17370 elapsed seconds
Timing for main: time 2012-10-29_12:29:56 on domain   1:    0.17878 elapsed seconds
Timing for main: time 2012-10-29_12:29:56 on domain   1:    0.16939 elapsed seconds
Timing for main: time 2012-10-29_12:29:56 on domain   1:    0.17320 elapsed seconds
Timing for main: time 2012-10-29_12:29:56 on domain   1:    0.17507 elapsed seconds
Timing for main: time 2012-10-29_12:29:56 on domain   1:    0.17373 elapsed seconds
Timing for main: time 2012-10-29_12:29:57 on domain   1:    0.17313 elapsed seconds
Timing for main: time 2012-10-29_12:29:57 on domain   1:    0.17696 elapsed seconds
Timing for main: time 2012-10-29_12:29:57 on domain   1:    0.17274 elapsed seconds
Timing for main: time 2012-10-29_12:29:57 on domain   1:    0.17449 elapsed seconds
Timing for main: time 2012-10-29_12:29:57 on domain   1:    0.17332 elapsed seconds
Timing for main: time 2012-10-29_12:29:58 on domain   1:    0.17673 elapsed seconds
Timing for main: time 2012-10-29_12:29:58 on domain   1:    0.17362 elapsed seconds
Timing for main: time 2012-10-29_12:29:58 on domain   1:    0.17251 elapsed seconds
Timing for main: time 2012-10-29_12:29:58 on domain   1:    0.17128 elapsed seconds
Timing for main: time 2012-10-29_12:29:58 on domain   1:    0.17250 elapsed seconds
Timing for main: time 2012-10-29_12:29:59 on domain   1:    0.17233 elapsed seconds
Timing for main: time 2012-10-29_12:29:59 on domain   1:    0.17305 elapsed seconds
Timing for main: time 2012-10-29_12:29:59 on domain   1:    0.17209 elapsed seconds
Timing for main: time 2012-10-29_12:29:59 on domain   1:    0.17202 elapsed seconds
Timing for main: time 2012-10-29_12:29:59 on domain   1:    0.17238 elapsed seconds
Timing for main: time 2012-10-29_12:30:00 on domain   1:    0.17495 elapsed seconds
wrf: SUCCESS COMPLETE WRF
